CM
CE
GW 100  20   40.03000 35.00000 -5.000000 40.03000 35.00000 5.000000 0.001000
GW 200  20   21.61000 35.27000 -5.000000 21.61000 35.27000 5.000000 0.001000
GW 300  20   3.550000 36.48000 -5.000000 3.550000 36.48000 5.000000 0.001000
GW 400  20   -15.25000 38.44000 -5.000000 -15.25000 38.44000 5.000000 0.001000
GW 500  20   -35.00000 40.03000 -5.000000 -35.00000 40.03000 5.000000 0.001000
GW 600  20   38.44000 15.25000 -5.000000 38.44000 15.25000 5.000000 0.001000
GW 700  20   20.03000 15.00000 -5.000000 20.03000 15.00000 5.000000 0.001000
GW 800  20   3.550000 16.48000 -5.000000 3.550000 16.48000 5.000000 0.001000
GW 900  20   -15.00000 20.03000 -5.000000 -15.00000 20.03000 5.000000 0.001000
GW 1000 20   -35.27000 21.61000 -5.000000 -35.27000 21.61000 5.000000 0.001000
GW 1100 20   36.48000 -3.550000 -5.000000 36.48000 -3.550000 5.000000 0.001000
GW 1200 20   16.48000 -3.550000 -5.000000 16.48000 -3.550000 5.000000 0.001000
GW 1300 20   -3.520000 -3.550000 -5.000000 -3.520000 -3.550000 5.000000 0.001000
GW 1400 20   -16.48000 3.550000 -5.000000 -16.48000 3.550000 5.000000 0.001000
GW 1500 20   -36.48000 3.550000 -5.000000 -36.48000 3.550000 5.000000 0.001000
GW 1600 20   35.27000 -21.61000 -5.000000 35.27000 -21.61000 5.000000 0.001000
GW 1700 20   15.00000 -20.03000 -5.000000 15.00000 -20.03000 5.000000 0.001000
GW 1800 20   -3.550000 -16.48000 -5.000000 -3.550000 -16.48000 5.000000 0.001000
GW 1900 20   -20.03000 -15.00000 -5.000000 -20.03000 -15.00000 5.000000 0.001000
GW 2000 20   -38.44000 -15.25000 -5.000000 -38.44000 -15.25000 5.000000 0.001000
GW 2100 20   35.00000 -40.03000 -5.000000 35.00000 -40.03000 5.000000 0.001000
GW 2200 20   15.25000 -38.44000 -5.000000 15.25000 -38.44000 5.000000 0.001000
GW 2300 20   -3.550000 -36.48000 -5.000000 -3.550000 -36.48000 5.000000 0.001000
GW 2400 20   -21.61000 -35.27000 -5.000000 -21.61000 -35.27000 5.000000 0.001000
GW 2500 20   -40.03000 -35.00000 -5.000000 -40.03000 -35.00000 5.000000 0.001000
GE 0 
GN -1 
FR  0  0  0  0   5.0 
EX  0 100  10 0   1.1762E+002   1.1741E+002 
EX  0 200  10 0   2.3707E+001   2.4975E+002 
EX  0 300  10 0   2.9730E+002   9.6499E+002 
EX  0 400  10 0   -1.8976E+003   5.4784E+001 
EX  0 500  10 0   1.0824E+003   -1.1344E+003 
EX  0 600  10 0   5.8794E+002   6.6038E+002 
EX  0 700  10 0   -1.9255E+003   -5.1911E+002 
EX  0 800  10 0   3.1940E+002   -1.2239E+002 
EX  0 900  10 0   1.7738E+003   -2.7576E+003 
EX  0 1000 10 0   -6.0608E+002   2.8742E+003 
EX  0 1100 10 0   -3.7640E+002   2.9185E+002 
EX  0 1200 10 0   9.3551E+002   -9.8714E+001 
EX  0 1300 10 0   -1.5773E+002   -1.0507E+003 
EX  0 1400 10 0   -4.4740E+002   3.7230E+003 
EX  0 1500 10 0   -1.4533E+002   -3.2441E+003 
EX  0 1600 10 0   -1.4464E+003   -8.1120E+002 
EX  0 1700 10 0   2.5217E+003   -4.9641E+002 
EX  0 1800 10 0   -2.4695E+003   2.1483E+003 
EX  0 1900 10 0   1.4213E+003   -2.9012E+003 
EX  0 2000 10 0   -6.4145E+001   2.3376E+003 
EX  0 2100 10 0   1.5622E+003   -2.4727E+002 
EX  0 2200 10 0   -2.3489E+003   1.7495E+003 
EX  0 2300 10 0   1.8437E+003   -2.4832E+003 
EX  0 2400 10 0   -1.1049E+003   2.1926E+003 
EX  0 2500 10 0   2.9079E+002   -1.8115E+003 
PT -1
RP  0  19  72  1010 0.0 0.0 5.0 5.0
EN
