CM
CE
GW 100  20   40.03000 35.00000 -5.000000 40.03000 35.00000 5.000000 0.001000
GW 200  20   21.61000 35.27000 -5.000000 21.61000 35.27000 5.000000 0.001000
GW 300  20   3.550000 36.48000 -5.000000 3.550000 36.48000 5.000000 0.001000
GW 400  20   -15.25000 38.44000 -5.000000 -15.25000 38.44000 5.000000 0.001000
GW 500  20   -35.00000 40.03000 -5.000000 -35.00000 40.03000 5.000000 0.001000
GW 600  20   38.44000 15.25000 -5.000000 38.44000 15.25000 5.000000 0.001000
GW 700  20   20.03000 15.00000 -5.000000 20.03000 15.00000 5.000000 0.001000
GW 800  20   3.550000 16.48000 -5.000000 3.550000 16.48000 5.000000 0.001000
GW 900  20   -15.00000 20.03000 -5.000000 -15.00000 20.03000 5.000000 0.001000
GW 1000 20   -35.27000 21.61000 -5.000000 -35.27000 21.61000 5.000000 0.001000
GW 1100 20   36.48000 -3.550000 -5.000000 36.48000 -3.550000 5.000000 0.001000
GW 1200 20   16.48000 -3.550000 -5.000000 16.48000 -3.550000 5.000000 0.001000
GW 1300 20   -3.520000 -3.550000 -5.000000 -3.520000 -3.550000 5.000000 0.001000
GW 1400 20   -16.48000 3.550000 -5.000000 -16.48000 3.550000 5.000000 0.001000
GW 1500 20   -36.48000 3.550000 -5.000000 -36.48000 3.550000 5.000000 0.001000
GW 1600 20   35.27000 -21.61000 -5.000000 35.27000 -21.61000 5.000000 0.001000
GW 1700 20   15.00000 -20.03000 -5.000000 15.00000 -20.03000 5.000000 0.001000
GW 1800 20   -3.550000 -16.48000 -5.000000 -3.550000 -16.48000 5.000000 0.001000
GW 1900 20   -20.03000 -15.00000 -5.000000 -20.03000 -15.00000 5.000000 0.001000
GW 2000 20   -38.44000 -15.25000 -5.000000 -38.44000 -15.25000 5.000000 0.001000
GW 2100 20   35.00000 -40.03000 -5.000000 35.00000 -40.03000 5.000000 0.001000
GW 2200 20   15.25000 -38.44000 -5.000000 15.25000 -38.44000 5.000000 0.001000
GW 2300 20   -3.550000 -36.48000 -5.000000 -3.550000 -36.48000 5.000000 0.001000
GW 2400 20   -21.61000 -35.27000 -5.000000 -21.61000 -35.27000 5.000000 0.001000
GW 2500 20   -40.03000 -35.00000 -5.000000 -40.03000 -35.00000 5.000000 0.001000
GE 0 
GN -1 
FR  0  0  0  0   5.0 
EX  0 100  10 0   -2.5774E+002   9.3097E+002 
EX  0 200  10 0   -2.2506E+002   -1.7137E+003 
EX  0 300  10 0   -2.2476E+003   1.5680E+003 
EX  0 400  10 0   2.0450E+003   -1.1789E+003 
EX  0 500  10 0   -1.2797E+002   1.0817E+003 
EX  0 600  10 0   -1.0417E+003   -5.4338E+002 
EX  0 700  10 0   7.1096E+002   -2.3423E+001 
EX  0 800  10 0   3.2579E+003   -5.3901E+002 
EX  0 900  10 0   -2.6452E+003   1.0377E+003 
EX  0 1000 10 0   -1.0877E+003   -5.8610E+002 
EX  0 1100 10 0   1.1143E+003   -7.4947E+002 
EX  0 1200 10 0   -2.1917E+003   2.5050E+003 
EX  0 1300 10 0   -1.7488E+003   -1.6437E+003 
EX  0 1400 10 0   7.1984E+002   8.5676E+002 
EX  0 1500 10 0   1.9710E+003   -3.8807E+002 
EX  0 1600 10 0   -4.5627E+001   2.8156E+002 
EX  0 1700 10 0   1.9602E+003   -5.4407E+002 
EX  0 1800 10 0   -7.0170E+002   -6.3589E+002 
EX  0 1900 10 0   1.8140E+003   8.0938E+002 
EX  0 2000 10 0   -1.9611E+003   2.3905E+002 
EX  0 2100 10 0   -9.8095E+000   9.9003E+002 
EX  0 2200 10 0   -1.9814E+003   -1.7475E+003 
EX  0 2300 10 0   2.4022E+003   2.1067E+003 
EX  0 2400 10 0   -1.8785E+003   -1.3087E+003 
EX  0 2500 10 0   1.6527E+003   3.2856E+002 
PT -1
RP  0  19  72  1010 0.0 0.0 5.0 5.0
EN
