CM
CE
GW 100  20   7.530000 2.500000 -5.000000 7.530000 2.500000 5.000000 0.001000
GW 200  20   -2.500000 7.530000 -5.000000 -2.500000 7.530000 5.000000 0.001000
GW 300  20   2.500000 -7.530000 -5.000000 2.500000 -7.530000 5.000000 0.001000
GW 400  20   -7.530000 -2.500000 -5.000000 -7.530000 -2.500000 5.000000 0.001000
GE 0 
GN -1 
FR  0  0  0  0   5.0 
EX  0 100  10 0   -8.4471E+002   8.3545E+002 
EX  0 200  10 0   -1.8362E+001   -1.3082E+003 
EX  0 300  10 0   3.8213E+002   -1.0618E+003 
EX  0 400  10 0   6.1827E+002   1.5079E+003 
PT -1
RP  0  19  72  1010 0.0 0.0 5.0 5.0
EN
