CM
CE
GW 100  20   40.03000 35.00000 -5.000000 40.03000 35.00000 5.000000 0.001000
GW 200  20   21.61000 35.27000 -5.000000 21.61000 35.27000 5.000000 0.001000
GW 300  20   3.550000 36.48000 -5.000000 3.550000 36.48000 5.000000 0.001000
GW 400  20   -15.25000 38.44000 -5.000000 -15.25000 38.44000 5.000000 0.001000
GW 500  20   -35.00000 40.03000 -5.000000 -35.00000 40.03000 5.000000 0.001000
GW 600  20   38.44000 15.25000 -5.000000 38.44000 15.25000 5.000000 0.001000
GW 700  20   20.03000 15.00000 -5.000000 20.03000 15.00000 5.000000 0.001000
GW 800  20   3.550000 16.48000 -5.000000 3.550000 16.48000 5.000000 0.001000
GW 900  20   -15.00000 20.03000 -5.000000 -15.00000 20.03000 5.000000 0.001000
GW 1000 20   -35.27000 21.61000 -5.000000 -35.27000 21.61000 5.000000 0.001000
GW 1100 20   36.48000 -3.550000 -5.000000 36.48000 -3.550000 5.000000 0.001000
GW 1200 20   16.48000 -3.550000 -5.000000 16.48000 -3.550000 5.000000 0.001000
GW 1300 20   -3.520000 -3.550000 -5.000000 -3.520000 -3.550000 5.000000 0.001000
GW 1400 20   -16.48000 3.550000 -5.000000 -16.48000 3.550000 5.000000 0.001000
GW 1500 20   -36.48000 3.550000 -5.000000 -36.48000 3.550000 5.000000 0.001000
GW 1600 20   35.27000 -21.61000 -5.000000 35.27000 -21.61000 5.000000 0.001000
GW 1700 20   15.00000 -20.03000 -5.000000 15.00000 -20.03000 5.000000 0.001000
GW 1800 20   -3.550000 -16.48000 -5.000000 -3.550000 -16.48000 5.000000 0.001000
GW 1900 20   -20.03000 -15.00000 -5.000000 -20.03000 -15.00000 5.000000 0.001000
GW 2000 20   -38.44000 -15.25000 -5.000000 -38.44000 -15.25000 5.000000 0.001000
GW 2100 20   35.00000 -40.03000 -5.000000 35.00000 -40.03000 5.000000 0.001000
GW 2200 20   15.25000 -38.44000 -5.000000 15.25000 -38.44000 5.000000 0.001000
GW 2300 20   -3.550000 -36.48000 -5.000000 -3.550000 -36.48000 5.000000 0.001000
GW 2400 20   -21.61000 -35.27000 -5.000000 -21.61000 -35.27000 5.000000 0.001000
GW 2500 20   -40.03000 -35.00000 -5.000000 -40.03000 -35.00000 5.000000 0.001000
GE 0 
GN -1 0  0  0  10.0  0.01 
FR  0  0  0  0   5.0 
EX  0 100  10 0    1.0000E+000    0.0000E+000 
EX  0 200  10 0    1.0000E+000    0.0000E+000 
EX  0 300  10 0    1.0000E+000    0.0000E+000 
EX  0 400  10 0    1.0000E+000    0.0000E+000 
EX  0 500  10 0    1.0000E+000    0.0000E+000 
EX  0 600  10 0    1.0000E+000    0.0000E+000 
EX  0 700  10 0    1.0000E+000    0.0000E+000 
EX  0 800  10 0    1.0000E+000    0.0000E+000 
EX  0 900  10 0    1.0000E+000    0.0000E+000 
EX  0 1000 10 0    1.0000E+000    0.0000E+000 
EX  0 1100 10 0    1.0000E+000    0.0000E+000 
EX  0 1200 10 0    1.0000E+000    0.0000E+000 
EX  0 1300 10 0    1.0000E+000    0.0000E+000 
EX  0 1400 10 0    1.0000E+000    0.0000E+000 
EX  0 1500 10 0    1.0000E+000    0.0000E+000 
EX  0 1600 10 0    1.0000E+000    0.0000E+000 
EX  0 1700 10 0    1.0000E+000    0.0000E+000 
EX  0 1800 10 0    1.0000E+000    0.0000E+000 
EX  0 1900 10 0    1.0000E+000    0.0000E+000 
EX  0 2000 10 0    1.0000E+000    0.0000E+000 
EX  0 2100 10 0    1.0000E+000    0.0000E+000 
EX  0 2200 10 0    1.0000E+000    0.0000E+000 
EX  0 2300 10 0    1.0000E+000    0.0000E+000 
EX  0 2400 10 0    1.0000E+000    0.0000E+000 
EX  0 2500 10 0    1.0000E+000    0.0000E+000 
PT -1
RP  0  19  72  1010 0.0 0.0 5.0 5.0
EN
