CM
CE
GW 100  20   40.00000 40.00000 -15.00000 40.00000 40.00000 15.00000 0.001000
GW 200  20   20.00000 40.00000 -15.00000 20.00000 40.00000 15.00000 0.001000
GW 300  20   0.000000 40.00000 -15.00000 0.000000 40.00000 15.00000 0.001000
GW 400  20   -20.00000 40.00000 -15.00000 -20.00000 40.00000 15.00000 0.001000
GW 500  20   -40.00000 40.00000 -15.00000 -40.00000 40.00000 15.00000 0.001000
GW 600  20   40.00000 20.00000 -15.00000 40.00000 20.00000 15.00000 0.001000
GW 700  20   20.00000 20.00000 -15.00000 20.00000 20.00000 15.00000 0.001000
GW 800  20   0.000000 20.00000 -15.00000 0.000000 20.00000 15.00000 0.001000
GW 900  20   -20.00000 20.00000 -15.00000 -20.00000 20.00000 15.00000 0.001000
GW 1000 20   -40.00000 20.00000 -15.00000 -40.00000 20.00000 15.00000 0.001000
GW 1100 20   40.00000 0.000000 -15.00000 40.00000 0.000000 15.00000 0.001000
GW 1200 20   20.00000 0.000000 -15.00000 20.00000 0.000000 15.00000 0.001000
GW 1300 20   0.000000 0.000000 -15.00000 0.000000 0.000000 15.00000 0.001000
GW 1400 20   -20.00000 0.000000 -15.00000 -20.00000 0.000000 15.00000 0.001000
GW 1500 20   -40.00000 0.000000 -15.00000 -40.00000 0.000000 15.00000 0.001000
GW 1600 20   40.00000 -20.00000 -15.00000 40.00000 -20.00000 15.00000 0.001000
GW 1700 20   20.00000 -20.00000 -15.00000 20.00000 -20.00000 15.00000 0.001000
GW 1800 20   0.000000 -20.00000 -15.00000 0.000000 -20.00000 15.00000 0.001000
GW 1900 20   -20.00000 -20.00000 -15.00000 -20.00000 -20.00000 15.00000 0.001000
GW 2000 20   -40.00000 -20.00000 -15.00000 -40.00000 -20.00000 15.00000 0.001000
GW 2100 20   40.00000 -40.00000 -15.00000 40.00000 -40.00000 15.00000 0.001000
GW 2200 20   20.00000 -40.00000 -15.00000 20.00000 -40.00000 15.00000 0.001000
GW 2300 20   0.000000 -40.00000 -15.00000 0.000000 -40.00000 15.00000 0.001000
GW 2400 20   -20.00000 -40.00000 -15.00000 -20.00000 -40.00000 15.00000 0.001000
GW 2500 20   -40.00000 -40.00000 -15.00000 -40.00000 -40.00000 15.00000 0.001000
GE 0 
GN -1 
FR  0  0  0  0   5.0 
EX  0 100  10 0   1.5796E+001   -1.1697E+001 
EX  0 200  10 0   1.3535E+001   1.4355E+001 
EX  0 300  10 0   -1.1136E+001   1.6025E+001 
EX  0 400  10 0   -1.5936E+001   -1.3833E+001 
EX  0 500  10 0   1.0580E+001   - 5.272E+000 
EX  0 600  10 0   1.3568E+001   1.4350E+001 
EX  0 700  10 0   -2.8861E+001   -1.1210E+001 
EX  0 800  10 0   3.5864E+000   -1.0459E+001 
EX  0 900  10 0   2.1223E+001   -5.7302E+000 
EX  0 1000 10 0   -1.0590E+001   1.7157E+001 
EX  0 1100 10 0   -1.1188E+001   1.6111E+001 
EX  0 1200 10 0   3.5438E+000   -1.0784E+001 
EX  0 1300 10 0   1.2454E+001   -3.4553E-001 
EX  0 1400 10 0   -7.5796E+000   1.1784E+001 
EX  0 1500 10 0   2.4240E+000   -2.2665E+001 
EX  0 1600 10 0   -1.5893E+001   -1.3869E+001 
EX  0 1700 10 0   2.1552E+001   -5.2930E+000 
EX  0 1800 10 0   -8.1738E+000   1.1959E+001 
EX  0 1900 10 0   -8.2508E-001   -1.4675E+001 
EX  0 2000 10 0   4.2657E+000   1.9708E+001 
EX  0 2100 10 0   1.0609E+001   -5.1589E+000 
EX  0 2200 10 0   -1.0853E+001   1.6864E+001 
EX  0 2300 10 0   2.8349E+000   -2.2459E+001 
EX  0 2400 10 0   4.1332E+000   1.9667E+001 
EX  0 2500 10 0   -4.8251E+000   -1.0107E+001 
PT -1
RP  0  19  72  1010 0.0 0.0 5.0 5.0
EN
