CM
CE
GW 100  20   20.00000 20.00000 -15.00000 20.00000 20.00000 15.00000 0.001000
GW 200  20   0.000000 20.00000 -15.00000 0.000000 20.00000 15.00000 0.001000
GW 300  20   -20.00000 20.00000 -15.00000 -20.00000 20.00000 15.00000 0.001000
GW 400  20   20.00000 0.000000 -15.00000 20.00000 0.000000 15.00000 0.001000
GW 500  20   0.000000 0.000000 -15.00000 0.000000 0.000000 15.00000 0.001000
GW 600  20   -20.00000 0.000000 -15.00000 -20.00000 0.000000 15.00000 0.001000
GW 700  20   20.00000 -20.00000 -15.00000 20.00000 -20.00000 15.00000 0.001000
GW 800  20   0.000000 -20.00000 -15.00000 0.000000 -20.00000 15.00000 0.001000
GW 900  20   -20.00000 -20.00000 -15.00000 -20.00000 -20.00000 15.00000 0.001000
GE 0 
GN -1 
FR  0  0  0  0   5.0 
EX  0 100  10 0   -6.6954E+000   -2.0893E+001 
EX  0 200  10 0   1.5456E+001   -1.0159E+000 
EX  0 300  10 0   -2.0555E+000   8.7217E+000 
EX  0 400  10 0   1.5456E+001   -1.0159E+000 
EX  0 500  10 0   -1.7464E+001   1.5579E+001 
EX  0 600  10 0   9.0368E-001   -1.2054E+001 
EX  0 700  10 0   -2.0556E+000   8.7217E+000 
EX  0 800  10 0   9.0368E-001   -1.2054E+001 
EX  0 900  10 0   5.1291E+000   8.5073E+000 
PT -1
RP  0  19  72  1010 0.0 0.0 5.0 5.0
EN
