CM
CE
GW 100  20   40.00000 40.00000 -15.00000 40.00000 40.00000 15.00000 0.001000
GW 200  20   20.00000 40.00000 -15.00000 20.00000 40.00000 15.00000 0.001000
GW 300  20   0.000000 40.00000 -15.00000 0.000000 40.00000 15.00000 0.001000
GW 400  20   -20.00000 40.00000 -15.00000 -20.00000 40.00000 15.00000 0.001000
GW 500  20   -40.00000 40.00000 -15.00000 -40.00000 40.00000 15.00000 0.001000
GW 600  20   40.00000 20.00000 -15.00000 40.00000 20.00000 15.00000 0.001000
GW 700  20   20.00000 20.00000 -15.00000 20.00000 20.00000 15.00000 0.001000
GW 800  20   0.000000 20.00000 -15.00000 0.000000 20.00000 15.00000 0.001000
GW 900  20   -20.00000 20.00000 -15.00000 -20.00000 20.00000 15.00000 0.001000
GW 1000 20   -40.00000 20.00000 -15.00000 -40.00000 20.00000 15.00000 0.001000
GW 1100 20   40.00000 0.000000 -15.00000 40.00000 0.000000 15.00000 0.001000
GW 1200 20   20.00000 0.000000 -15.00000 20.00000 0.000000 15.00000 0.001000
GW 1300 20   0.000000 0.000000 -15.00000 0.000000 0.000000 15.00000 0.001000
GW 1400 20   -20.00000 0.000000 -15.00000 -20.00000 0.000000 15.00000 0.001000
GW 1500 20   -40.00000 0.000000 -15.00000 -40.00000 0.000000 15.00000 0.001000
GW 1600 20   40.00000 -20.00000 -15.00000 40.00000 -20.00000 15.00000 0.001000
GW 1700 20   20.00000 -20.00000 -15.00000 20.00000 -20.00000 15.00000 0.001000
GW 1800 20   0.000000 -20.00000 -15.00000 0.000000 -20.00000 15.00000 0.001000
GW 1900 20   -20.00000 -20.00000 -15.00000 -20.00000 -20.00000 15.00000 0.001000
GW 2000 20   -40.00000 -20.00000 -15.00000 -40.00000 -20.00000 15.00000 0.001000
GW 2100 20   40.00000 -40.00000 -15.00000 40.00000 -40.00000 15.00000 0.001000
GW 2200 20   20.00000 -40.00000 -15.00000 20.00000 -40.00000 15.00000 0.001000
GW 2300 20   0.000000 -40.00000 -15.00000 0.000000 -40.00000 15.00000 0.001000
GW 2400 20   -20.00000 -40.00000 -15.00000 -20.00000 -40.00000 15.00000 0.001000
GW 2500 20   -40.00000 -40.00000 -15.00000 -40.00000 -40.00000 15.00000 0.001000
GE 0 
GN -1 
FR  0  0  0  0   5.0 
EX  0 100  10 0   1.5721E+001   -2.261E+000 
EX  0 200  10 0    5.184E+000   1.6711E+001 
EX  0 300  10 0   -1.5363E+001   1.1483E+001 
EX  0 400  10 0   -1.1228E+001   -2.6306E+001 
EX  0 500  10 0   1.3788E+001    5.858E+000 
EX  0 600  10 0    5.184E+000   1.6711E+001 
EX  0 700  10 0   -1.732E+001   -2.4788E+001 
EX  0 800  10 0    8.156E+000   -9.3100E-001 
EX  0 900  10 0   3.0889E+001   1.0437E+001 
EX  0 1000 10 0   -2.9774E+001    1.412E+000 
EX  0 1100 10 0   -1.5363E+001   1.1483E+001 
EX  0 1200 10 0    8.156E+000   -9.3100E-001 
EX  0 1300 10 0    6.174E+000   -8.199E+000 
EX  0 1400 10 0   -2.701E+001    5.988E+000 
EX  0 1500 10 0   3.2762E+001   -1.0814E+001 
EX  0 1600 10 0   -1.1228E+001   -2.6306E+001 
EX  0 1700 10 0   3.0889E+001   1.0437E+001 
EX  0 1800 10 0   -2.701E+001    5.988E+000 
EX  0 1900 10 0   2.5246E+001   -8.787E+000 
EX  0 2000 10 0   -2.6058E+001   1.1413E+001 
EX  0 2100 10 0   1.3788E+001    5.858E+000 
EX  0 2200 10 0   -2.9774E+001    1.412E+000 
EX  0 2300 10 0   3.2762E+001   -1.0814E+001 
EX  0 2400 10 0   -2.6058E+001   1.1413E+001 
EX  0 2500 10 0   1.2092E+001   -7.704E+000 
PT -1
RP  0  19  72  1010 0.0 0.0 5.0 5.0
EN
