CM
CE
GW 100  20   10.00000 10.00000 -15.00000 10.00000 10.00000 15.00000 0.001000
GW 200  20   -10.00000 10.00000 -15.00000 -10.00000 10.00000 15.00000 0.001000
GW 300  20   10.00000 -10.00000 -15.00000 10.00000 -10.00000 15.00000 0.001000
GW 400  20   -10.00000 -10.00000 -15.00000 -10.00000 -10.00000 15.00000 0.001000
GE 0 
GN -1 
FR  0  0  0  0   5.0 
EX  0 100  10 0   1.0909E+001   -1.1356E+001 
EX  0 200  10 0   1.9088E+000   9.1436E+000 
EX  0 300  10 0   1.9088E+000   9.1436E+000 
EX  0 400  10 0   -6.7452E+000   -7.4059E+000 
PT -1
RP  0  19  72  1010 0.0 0.0 5.0 5.0
EN
