CM
CE
GW 100  20   10.00000 10.00000 -5.000000 10.00000 10.00000 5.000000 0.001000
GW 200  20   -10.00000 10.00000 -5.000000 -10.00000 10.00000 5.000000 0.001000
GW 300  20   10.00000 -10.00000 -5.000000 10.00000 -10.00000 5.000000 0.001000
GW 400  20   -10.00000 -10.00000 -5.000000 -10.00000 -10.00000 5.000000 0.001000
GE 0 
GN -1 0  0  0  10.0  0.01 
FR  0  0  0  0   5.0 
EX  0 100  10 0    1.0000E+000    0.0000E+000 
EX  0 200  10 0    1.0000E+000    0.0000E+000 
EX  0 300  10 0    1.0000E+000    0.0000E+000 
EX  0 400  10 0    1.0000E+000    0.0000E+000 
PT -1
RP  0  19  72  1010 0.0 0.0 5.0 5.0
EN
