CM
CE
GW 100  20   20.00000 20.00000 -5.000000 20.00000 20.00000 5.000000 0.001000
GW 200  20   0.000000 20.00000 -5.000000 0.000000 20.00000 5.000000 0.001000
GW 300  20   -20.00000 20.00000 -5.000000 -20.00000 20.00000 5.000000 0.001000
GW 400  20   20.00000 0.000000 -5.000000 20.00000 0.000000 5.000000 0.001000
GW 500  20   0.000000 0.000000 -5.000000 0.000000 0.000000 5.000000 0.001000
GW 600  20   -20.00000 0.000000 -5.000000 -20.00000 0.000000 5.000000 0.001000
GW 700  20   20.00000 -20.00000 -5.000000 20.00000 -20.00000 5.000000 0.001000
GW 800  20   0.000000 -20.00000 -5.000000 0.000000 -20.00000 5.000000 0.001000
GW 900  20   -20.00000 -20.00000 -5.000000 -20.00000 -20.00000 5.000000 0.001000
GE 0 
GN -1 
FR  0  0  0  0   5.0 
EX  0 100  10 0   3.8295E+002   3.9257E+002 
EX  0 200  10 0   -8.4164E+002   4.5122E+002 
EX  0 300  10 0   1.2346E+002   -6.4015E+002 
EX  0 400  10 0   -8.4164E+002   4.5122E+002 
EX  0 500  10 0   4.7854E+002   -1.4666E+003 
EX  0 600  10 0   2.9174E+002   9.8247E+002 
EX  0 700  10 0   1.2346E+002   -6.4015E+002 
EX  0 800  10 0   2.9174E+002   9.8247E+002 
EX  0 900  10 0   -6.7306E+002   -6.5163E+002 
PT -1
RP  0  19  72  1010 0.0 0.0 5.0 5.0
EN
