CM
CE
GW 100  20   10.00000 10.00000 -5.000000 10.00000 10.00000 5.000000 0.001000
GW 200  20   -10.00000 10.00000 -5.000000 -10.00000 10.00000 5.000000 0.001000
GW 300  20   10.00000 -10.00000 -5.000000 10.00000 -10.00000 5.000000 0.001000
GW 400  20   -10.00000 -10.00000 -5.000000 -10.00000 -10.00000 5.000000 0.001000
GE 0 
GN -1 
FR  0  0  0  0   5.0 
EX  0 100  10 0   -5.1649E+002   1.4916E+002 
EX  0 200  10 0   3.1933E+002   -6.0661E+002 
EX  0 300  10 0   3.1790E+002   -6.0730E+002 
EX  0 400  10 0   7.3141E+001   8.0264E+002 
PT -1
RP  0  19  72  1010 0.0 0.0 5.0 5.0
EN
