CM
CE
GW 100  20   40.00000 40.00000 -5.000000 40.00000 40.00000 5.000000 0.001000
GW 200  20   20.00000 40.00000 -5.000000 20.00000 40.00000 5.000000 0.001000
GW 300  20   0.000000 40.00000 -5.000000 0.000000 40.00000 5.000000 0.001000
GW 400  20   -20.00000 40.00000 -5.000000 -20.00000 40.00000 5.000000 0.001000
GW 500  20   -40.00000 40.00000 -5.000000 -40.00000 40.00000 5.000000 0.001000
GW 600  20   40.00000 20.00000 -5.000000 40.00000 20.00000 5.000000 0.001000
GW 700  20   20.00000 20.00000 -5.000000 20.00000 20.00000 5.000000 0.001000
GW 800  20   0.000000 20.00000 -5.000000 0.000000 20.00000 5.000000 0.001000
GW 900  20   -20.00000 20.00000 -5.000000 -20.00000 20.00000 5.000000 0.001000
GW 1000 20   -40.00000 20.00000 -5.000000 -40.00000 20.00000 5.000000 0.001000
GW 1100 20   40.00000 0.000000 -5.000000 40.00000 0.000000 5.000000 0.001000
GW 1200 20   20.00000 0.000000 -5.000000 20.00000 0.000000 5.000000 0.001000
GW 1300 20   0.000000 0.000000 -5.000000 0.000000 0.000000 5.000000 0.001000
GW 1400 20   -20.00000 0.000000 -5.000000 -20.00000 0.000000 5.000000 0.001000
GW 1500 20   -40.00000 0.000000 -5.000000 -40.00000 0.000000 5.000000 0.001000
GW 1600 20   40.00000 -20.00000 -5.000000 40.00000 -20.00000 5.000000 0.001000
GW 1700 20   20.00000 -20.00000 -5.000000 20.00000 -20.00000 5.000000 0.001000
GW 1800 20   0.000000 -20.00000 -5.000000 0.000000 -20.00000 5.000000 0.001000
GW 1900 20   -20.00000 -20.00000 -5.000000 -20.00000 -20.00000 5.000000 0.001000
GW 2000 20   -40.00000 -20.00000 -5.000000 -40.00000 -20.00000 5.000000 0.001000
GW 2100 20   40.00000 -40.00000 -5.000000 40.00000 -40.00000 5.000000 0.001000
GW 2200 20   20.00000 -40.00000 -5.000000 20.00000 -40.00000 5.000000 0.001000
GW 2300 20   0.000000 -40.00000 -5.000000 0.000000 -40.00000 5.000000 0.001000
GW 2400 20   -20.00000 -40.00000 -5.000000 -20.00000 -40.00000 5.000000 0.001000
GW 2500 20   -40.00000 -40.00000 -5.000000 -40.00000 -40.00000 5.000000 0.001000
GE 0 
GN -1 
FR  0  0  0  0   5.0 
EX  0 100  10 0   2.0957E+002   -4.8889E+001 
EX  0 200  10 0   4.2844E+002   4.1744E+002 
EX  0 300  10 0   -2.3648E+002   5.9356E+002 
EX  0 400  10 0   -1.0388E+003   -4.6576E+002 
EX  0 500  10 0   8.5489E+002   -4.4266E+002 
EX  0 600  10 0   4.2641E+002   4.1655E+002 
EX  0 700  10 0   -1.7001E+003   1.3971E+002 
EX  0 800  10 0   4.6487E+002   -8.9427E+002 
EX  0 900  10 0   1.0453E+003   -4.6373E+002 
EX  0 1000 10 0   -5.0109E+002   1.4636E+003 
EX  0 1100 10 0   -2.3495E+002   5.9883E+002 
EX  0 1200 10 0   4.6609E+002   -8.9879E+002 
EX  0 1300 10 0   -8.6756E+001   7.1618E+002 
EX  0 1400 10 0   -2.8564E+002   1.0017E+003 
EX  0 1500 10 0   -3.2404E+002   -1.6466E+003 
EX  0 1600 10 0   -1.0352E+003   -4.7059E+002 
EX  0 1700 10 0   1.0333E+003   -4.5248E+002 
EX  0 1800 10 0   -2.7290E+002   9.9305E+002 
EX  0 1900 10 0   -5.2002E+002   -1.5222E+003 
EX  0 2000 10 0   7.0483E+002   1.3642E+003 
EX  0 2100 10 0   8.4863E+002   -4.3672E+002 
EX  0 2200 10 0   -4.8734E+002   1.4533E+003 
EX  0 2300 10 0   -3.4302E+002   -1.6362E+003 
EX  0 2400 10 0   7.1532E+002   1.3562E+003 
EX  0 2500 10 0   -7.5762E+002   -1.0992E+003 
PT -1
RP  0  19  72  1010 0.0 0.0 5.0 5.0
EN
