CM
CE
GW 100  20   10.03000 5.000000 -5.000000 10.03000 5.000000 5.000000 0.001000
GW 200  20   -5.000000 10.03000 -5.000000 -5.000000 10.03000 5.000000 0.001000
GW 300  20   5.000000 -10.03000 -5.000000 5.000000 -10.03000 5.000000 0.001000
GW 400  20   -10.03000 -5.000000 -5.000000 -10.03000 -5.000000 5.000000 0.001000
GE 0 
GN -1 
FR  0  0  0  0   5.0 
EX  0 100  10 0   -2.8903E+002   -6.9820E+002 
EX  0 200  10 0   7.7141E+002   1.4506E+002 
EX  0 300  10 0   6.8879E+002   4.6638E+002 
EX  0 400  10 0   -9.4509E+002   2.0521E+002 
PT -1
RP  0  19  72  1010 0.0 0.0 5.0 5.0
EN
