CM
CE
GW 100  20   10.03000 5.000000 -5.000000 10.03000 5.000000 5.000000 0.001000
GW 200  20   -5.000000 10.03000 -5.000000 -5.000000 10.03000 5.000000 0.001000
GW 300  20   5.000000 -10.03000 -5.000000 5.000000 -10.03000 5.000000 0.001000
GW 400  20   -10.03000 -5.000000 -5.000000 -10.03000 -5.000000 5.000000 0.001000
GE 0 
GN -1 
FR  0  0  0  0   5.0 
EX  0 100  10 0   -7.0790E+002   -2.8519E+002 
EX  0 200  10 0   6.4635E+002   -4.6063E+002 
EX  0 300  10 0   8.2633E+002   -1.6516E+002 
EX  0 400  10 0   -5.1891E+002   8.2929E+002 
PT -1
RP  0  19  72  1010 0.0 0.0 5.0 5.0
EN
