CM
CE
GW 100  25   10.00000 10.00000 0.350000 11.76000 11.78000 2.700000 0.001000
GW 101  50   11.76000 11.78000 2.700000 10.00000 10.00000 15.20000 0.001000
GW 102  25   10.00000 10.00000 0.350000 12.50000 10.01000 2.700000 0.001000
GW 103  50   12.50000 10.01000 2.700000 10.00000 10.00000 15.20000 0.001000
GW 104  25   10.00000 10.00000 0.350000 11.78000 7.780000 2.700000 0.001000
GW 105  50   11.78000 7.780000 2.700000 10.00000 10.00000 15.20000 0.001000
GW 106  25   10.00000 10.00000 0.350000 10.01000 7.500000 2.700000 0.001000
GW 107  50   10.01000 7.500000 2.700000 10.00000 10.00000 15.20000 0.001000
GW 108  25   10.00000 10.00000 0.350000 7.780000 7.760000 2.700000 0.001000
GW 109  50   7.780000 7.760000 2.700000 10.00000 10.00000 15.20000 0.001000
GW 110  25   10.00000 10.00000 0.350000 7.500000 9.990000 2.700000 0.001000
GW 111  50   7.500000 9.990000 2.700000 10.00000 10.00000 15.20000 0.001000
GW 112  25   10.00000 10.00000 0.350000 7.760000 11.76000 2.700000 0.001000
GW 113  50   7.760000 11.76000 2.700000 10.00000 10.00000 15.20000 0.001000
GW 114  25   10.00000 10.00000 0.350000 9.990000 12.50000 2.700000 0.001000
GW 115  50   9.990000 12.50000 2.700000 10.00000 10.00000 15.20000 0.001000
GW 116  3    10.00000 10.00000 -0.350000 10.00000 10.00000 0.350000 0.001000
GW 117  25   10.00000 10.00000 -0.350000 11.76000 11.78000 -2.700000 0.001000
GW 118  50   11.76000 11.78000 -2.700000 10.00000 10.00000 -15.20000 0.001000
GW 119  25   10.00000 10.00000 -0.350000 12.50000 10.01000 -2.700000 0.001000
GW 120  50   12.50000 10.01000 -2.700000 10.00000 10.00000 -15.20000 0.001000
GW 121  25   10.00000 10.00000 -0.350000 11.78000 7.780000 -2.700000 0.001000
GW 122  50   11.78000 7.780000 -2.700000 10.00000 10.00000 -15.20000 0.001000
GW 123  25   10.00000 10.00000 -0.350000 10.01000 7.500000 -2.700000 0.001000
GW 124  50   10.01000 7.500000 -2.700000 10.00000 10.00000 -15.20000 0.001000
GW 125  25   10.00000 10.00000 -0.350000 7.780000 7.760000 -2.700000 0.001000
GW 126  50   7.780000 7.760000 -2.700000 10.00000 10.00000 -15.20000 0.001000
GW 127  25   10.00000 10.00000 -0.350000 7.500000 9.990000 -2.700000 0.001000
GW 128  50   7.500000 9.990000 -2.700000 10.00000 10.00000 -15.20000 0.001000
GW 129  25   10.00000 10.00000 -0.350000 7.760000 11.76000 -2.700000 0.001000
GW 130  50   7.760000 11.76000 -2.700000 10.00000 10.00000 -15.20000 0.001000
GW 131  25   10.00000 10.00000 -0.350000 9.990000 12.50000 -2.700000 0.001000
GW 132  50   9.990000 12.50000 -2.700000 10.00000 10.00000 -15.20000 0.001000
GW 200  25   -10.00000 10.00000 0.350000 -11.78000 11.76000 2.700000 0.001000
GW 201  50   -11.78000 11.76000 2.700000 -10.00000 10.00000 15.20000 0.001000
GW 202  25   -10.00000 10.00000 0.350000 -10.01000 12.50000 2.700000 0.001000
GW 203  50   -10.01000 12.50000 2.700000 -10.00000 10.00000 15.20000 0.001000
GW 204  25   -10.00000 10.00000 0.350000 -7.780000 11.78000 2.700000 0.001000
GW 205  50   -7.780000 11.78000 2.700000 -10.00000 10.00000 15.20000 0.001000
GW 206  25   -10.00000 10.00000 0.350000 -7.500000 10.01000 2.700000 0.001000
GW 207  50   -7.500000 10.01000 2.700000 -10.00000 10.00000 15.20000 0.001000
GW 208  25   -10.00000 10.00000 0.350000 -7.760000 7.780000 2.700000 0.001000
GW 209  50   -7.760000 7.780000 2.700000 -10.00000 10.00000 15.20000 0.001000
GW 210  25   -10.00000 10.00000 0.350000 -9.990000 7.500000 2.700000 0.001000
GW 211  50   -9.990000 7.500000 2.700000 -10.00000 10.00000 15.20000 0.001000
GW 212  25   -10.00000 10.00000 0.350000 -11.76000 7.760000 2.700000 0.001000
GW 213  50   -11.76000 7.760000 2.700000 -10.00000 10.00000 15.20000 0.001000
GW 214  25   -10.00000 10.00000 0.350000 -12.50000 9.990000 2.700000 0.001000
GW 215  50   -12.50000 9.990000 2.700000 -10.00000 10.00000 15.20000 0.001000
GW 216  3    -10.00000 10.00000 -0.350000 -10.00000 10.00000 0.350000 0.001000
GW 217  25   -10.00000 10.00000 -0.350000 -11.78000 11.76000 -2.700000 0.001000
GW 218  50   -11.78000 11.76000 -2.700000 -10.00000 10.00000 -15.20000 0.001000
GW 219  25   -10.00000 10.00000 -0.350000 -10.01000 12.50000 -2.700000 0.001000
GW 220  50   -10.01000 12.50000 -2.700000 -10.00000 10.00000 -15.20000 0.001000
GW 221  25   -10.00000 10.00000 -0.350000 -7.780000 11.78000 -2.700000 0.001000
GW 222  50   -7.780000 11.78000 -2.700000 -10.00000 10.00000 -15.20000 0.001000
GW 223  25   -10.00000 10.00000 -0.350000 -7.500000 10.01000 -2.700000 0.001000
GW 224  50   -7.500000 10.01000 -2.700000 -10.00000 10.00000 -15.20000 0.001000
GW 225  25   -10.00000 10.00000 -0.350000 -7.760000 7.780000 -2.700000 0.001000
GW 226  50   -7.760000 7.780000 -2.700000 -10.00000 10.00000 -15.20000 0.001000
GW 227  25   -10.00000 10.00000 -0.350000 -9.990000 7.500000 -2.700000 0.001000
GW 228  50   -9.990000 7.500000 -2.700000 -10.00000 10.00000 -15.20000 0.001000
GW 229  25   -10.00000 10.00000 -0.350000 -11.76000 7.760000 -2.700000 0.001000
GW 230  50   -11.76000 7.760000 -2.700000 -10.00000 10.00000 -15.20000 0.001000
GW 231  25   -10.00000 10.00000 -0.350000 -12.50000 9.990000 -2.700000 0.001000
GW 232  50   -12.50000 9.990000 -2.700000 -10.00000 10.00000 -15.20000 0.001000
GW 300  25   10.00000 -10.00000 0.350000 11.78000 -11.76000 2.700000 0.001000
GW 301  50   11.78000 -11.76000 2.700000 10.00000 -10.00000 15.20000 0.001000
GW 302  25   10.00000 -10.00000 0.350000 10.01000 -12.50000 2.700000 0.001000
GW 303  50   10.01000 -12.50000 2.700000 10.00000 -10.00000 15.20000 0.001000
GW 304  25   10.00000 -10.00000 0.350000 7.780000 -11.78000 2.700000 0.001000
GW 305  50   7.780000 -11.78000 2.700000 10.00000 -10.00000 15.20000 0.001000
GW 306  25   10.00000 -10.00000 0.350000 7.500000 -10.01000 2.700000 0.001000
GW 307  50   7.500000 -10.01000 2.700000 10.00000 -10.00000 15.20000 0.001000
GW 308  25   10.00000 -10.00000 0.350000 7.760000 -7.780000 2.700000 0.001000
GW 309  50   7.760000 -7.780000 2.700000 10.00000 -10.00000 15.20000 0.001000
GW 310  25   10.00000 -10.00000 0.350000 9.990000 -7.500000 2.700000 0.001000
GW 311  50   9.990000 -7.500000 2.700000 10.00000 -10.00000 15.20000 0.001000
GW 312  25   10.00000 -10.00000 0.350000 11.76000 -7.760000 2.700000 0.001000
GW 313  50   11.76000 -7.760000 2.700000 10.00000 -10.00000 15.20000 0.001000
GW 314  25   10.00000 -10.00000 0.350000 12.50000 -9.990000 2.700000 0.001000
GW 315  50   12.50000 -9.990000 2.700000 10.00000 -10.00000 15.20000 0.001000
GW 316  3    10.00000 -10.00000 -0.350000 10.00000 -10.00000 0.350000 0.001000
GW 317  25   10.00000 -10.00000 -0.350000 11.78000 -11.76000 -2.700000 0.001000
GW 318  50   11.78000 -11.76000 -2.700000 10.00000 -10.00000 -15.20000 0.001000
GW 319  25   10.00000 -10.00000 -0.350000 10.01000 -12.50000 -2.700000 0.001000
GW 320  50   10.01000 -12.50000 -2.700000 10.00000 -10.00000 -15.20000 0.001000
GW 321  25   10.00000 -10.00000 -0.350000 7.780000 -11.78000 -2.700000 0.001000
GW 322  50   7.780000 -11.78000 -2.700000 10.00000 -10.00000 -15.20000 0.001000
GW 323  25   10.00000 -10.00000 -0.350000 7.500000 -10.01000 -2.700000 0.001000
GW 324  50   7.500000 -10.01000 -2.700000 10.00000 -10.00000 -15.20000 0.001000
GW 325  25   10.00000 -10.00000 -0.350000 7.760000 -7.780000 -2.700000 0.001000
GW 326  50   7.760000 -7.780000 -2.700000 10.00000 -10.00000 -15.20000 0.001000
GW 327  25   10.00000 -10.00000 -0.350000 9.990000 -7.500000 -2.700000 0.001000
GW 328  50   9.990000 -7.500000 -2.700000 10.00000 -10.00000 -15.20000 0.001000
GW 329  25   10.00000 -10.00000 -0.350000 11.76000 -7.760000 -2.700000 0.001000
GW 330  50   11.76000 -7.760000 -2.700000 10.00000 -10.00000 -15.20000 0.001000
GW 331  25   10.00000 -10.00000 -0.350000 12.50000 -9.990000 -2.700000 0.001000
GW 332  50   12.50000 -9.990000 -2.700000 10.00000 -10.00000 -15.20000 0.001000
GW 400  25   -10.00000 -10.00000 0.350000 -11.76000 -11.78000 2.700000 0.001000
GW 401  50   -11.76000 -11.78000 2.700000 -10.00000 -10.00000 15.20000 0.001000
GW 402  25   -10.00000 -10.00000 0.350000 -12.50000 -10.01000 2.700000 0.001000
GW 403  50   -12.50000 -10.01000 2.700000 -10.00000 -10.00000 15.20000 0.001000
GW 404  25   -10.00000 -10.00000 0.350000 -11.78000 -7.780000 2.700000 0.001000
GW 405  50   -11.78000 -7.780000 2.700000 -10.00000 -10.00000 15.20000 0.001000
GW 406  25   -10.00000 -10.00000 0.350000 -10.01000 -7.500000 2.700000 0.001000
GW 407  50   -10.01000 -7.500000 2.700000 -10.00000 -10.00000 15.20000 0.001000
GW 408  25   -10.00000 -10.00000 0.350000 -7.780000 -7.760000 2.700000 0.001000
GW 409  50   -7.780000 -7.760000 2.700000 -10.00000 -10.00000 15.20000 0.001000
GW 410  25   -10.00000 -10.00000 0.350000 -7.500000 -9.990000 2.700000 0.001000
GW 411  50   -7.500000 -9.990000 2.700000 -10.00000 -10.00000 15.20000 0.001000
GW 412  25   -10.00000 -10.00000 0.350000 -7.760000 -11.76000 2.700000 0.001000
GW 413  50   -7.760000 -11.76000 2.700000 -10.00000 -10.00000 15.20000 0.001000
GW 414  25   -10.00000 -10.00000 0.350000 -9.990000 -12.50000 2.700000 0.001000
GW 415  50   -9.990000 -12.50000 2.700000 -10.00000 -10.00000 15.20000 0.001000
GW 416  3    -10.00000 -10.00000 -0.350000 -10.00000 -10.00000 0.350000 0.001000
GW 417  25   -10.00000 -10.00000 -0.350000 -11.76000 -11.78000 -2.700000 0.001000
GW 418  50   -11.76000 -11.78000 -2.700000 -10.00000 -10.00000 -15.20000 0.001000
GW 419  25   -10.00000 -10.00000 -0.350000 -12.50000 -10.01000 -2.700000 0.001000
GW 420  50   -12.50000 -10.01000 -2.700000 -10.00000 -10.00000 -15.20000 0.001000
GW 421  25   -10.00000 -10.00000 -0.350000 -11.78000 -7.780000 -2.700000 0.001000
GW 422  50   -11.78000 -7.780000 -2.700000 -10.00000 -10.00000 -15.20000 0.001000
GW 423  25   -10.00000 -10.00000 -0.350000 -10.01000 -7.500000 -2.700000 0.001000
GW 424  50   -10.01000 -7.500000 -2.700000 -10.00000 -10.00000 -15.20000 0.001000
GW 425  25   -10.00000 -10.00000 -0.350000 -7.780000 -7.760000 -2.700000 0.001000
GW 426  50   -7.780000 -7.760000 -2.700000 -10.00000 -10.00000 -15.20000 0.001000
GW 427  25   -10.00000 -10.00000 -0.350000 -7.500000 -9.990000 -2.700000 0.001000
GW 428  50   -7.500000 -9.990000 -2.700000 -10.00000 -10.00000 -15.20000 0.001000
GW 429  25   -10.00000 -10.00000 -0.350000 -7.760000 -11.76000 -2.700000 0.001000
GW 430  50   -7.760000 -11.76000 -2.700000 -10.00000 -10.00000 -15.20000 0.001000
GW 431  25   -10.00000 -10.00000 -0.350000 -9.990000 -12.50000 -2.700000 0.001000
GW 432  50   -9.990000 -12.50000 -2.700000 -10.00000 -10.00000 -15.20000 0.001000
GE 0 
GN -1 0  0  0  0.00   0.00 
FR  0  0  0  0   5.0 
EX  0 116  2  0    1.0000E+000    0.0000E+000 
EX  0 216  2  0    1.0000E+000    0.0000E+000 
EX  0 316  2  0    1.0000E+000    0.0000E+000 
EX  0 416  2  0    1.0000E+000    0.0000E+000 
PT -1
RP  0  19  72  1010 0.0 0.0 5.0 5.0
EN
