CM
CE
GW 100  5    10.00000 10.00000 0.350000 11.76000 11.78000 2.700000 0.001000
GW 101  10   11.76000 11.78000 2.700000 10.00000 10.00000 15.20000 0.001000
GW 102  5    10.00000 10.00000 0.350000 12.50000 10.01000 2.700000 0.001000
GW 103  10   12.50000 10.01000 2.700000 10.00000 10.00000 15.20000 0.001000
GW 104  5    10.00000 10.00000 0.350000 11.78000 7.780000 2.700000 0.001000
GW 105  10   11.78000 7.780000 2.700000 10.00000 10.00000 15.20000 0.001000
GW 106  5    10.00000 10.00000 0.350000 10.01000 7.500000 2.700000 0.001000
GW 107  10   10.01000 7.500000 2.700000 10.00000 10.00000 15.20000 0.001000
GW 108  5    10.00000 10.00000 0.350000 7.780000 7.760000 2.700000 0.001000
GW 109  10   7.780000 7.760000 2.700000 10.00000 10.00000 15.20000 0.001000
GW 110  5    10.00000 10.00000 0.350000 7.500000 9.990000 2.700000 0.001000
GW 111  10   7.500000 9.990000 2.700000 10.00000 10.00000 15.20000 0.001000
GW 112  5    10.00000 10.00000 0.350000 7.760000 11.76000 2.700000 0.001000
GW 113  10   7.760000 11.76000 2.700000 10.00000 10.00000 15.20000 0.001000
GW 114  5    10.00000 10.00000 0.350000 9.990000 12.50000 2.700000 0.001000
GW 115  10   9.990000 12.50000 2.700000 10.00000 10.00000 15.20000 0.001000
GW 116  3    10.00000 10.00000 0.200000 10.00000 10.00000 0.350000 0.001000
GW 117  2    10.00000 10.00000 0.200000 10.00000 10.20000 0.200000 0.001000
GW 118  10   10.00000 10.20000 0.200000 9.920000 25.00000 0.200000 0.001000
GW 119  2    10.00000 10.00000 0.200000 10.06000 10.19000 0.200000 0.001000
GW 120  10   10.06000 10.19000 0.200000 14.56000 24.29000 0.200000 0.001000
GW 121  2    10.00000 10.00000 0.200000 10.12000 10.16000 0.200000 0.001000
GW 122  10   10.12000 10.16000 0.200000 18.75000 22.18000 0.200000 0.001000
GW 123  2    10.00000 10.00000 0.200000 10.16000 10.12000 0.200000 0.001000
GW 124  10   10.16000 10.12000 0.200000 22.07000 21.88000 0.200000 0.001000
GW 125  2    10.00000 10.00000 0.200000 10.19000 10.06000 0.200000 0.001000
GW 126  10   10.19000 10.06000 0.200000 24.24000 14.71000 0.200000 0.001000
GW 127  2    10.00000 10.00000 0.200000 10.20000 10.00000 0.200000 0.001000
GW 128  10   10.20000 10.00000 0.200000 25.00000 10.08000 0.200000 0.001000
GW 200  5    -10.00000 10.00000 0.350000 -11.78000 11.76000 2.700000 0.001000
GW 201  10   -11.78000 11.76000 2.700000 -10.00000 10.00000 15.20000 0.001000
GW 202  5    -10.00000 10.00000 0.350000 -10.01000 12.50000 2.700000 0.001000
GW 203  10   -10.01000 12.50000 2.700000 -10.00000 10.00000 15.20000 0.001000
GW 204  5    -10.00000 10.00000 0.350000 -7.780000 11.78000 2.700000 0.001000
GW 205  10   -7.780000 11.78000 2.700000 -10.00000 10.00000 15.20000 0.001000
GW 206  5    -10.00000 10.00000 0.350000 -7.500000 10.01000 2.700000 0.001000
GW 207  10   -7.500000 10.01000 2.700000 -10.00000 10.00000 15.20000 0.001000
GW 208  5    -10.00000 10.00000 0.350000 -7.760000 7.780000 2.700000 0.001000
GW 209  10   -7.760000 7.780000 2.700000 -10.00000 10.00000 15.20000 0.001000
GW 210  5    -10.00000 10.00000 0.350000 -9.990000 7.500000 2.700000 0.001000
GW 211  10   -9.990000 7.500000 2.700000 -10.00000 10.00000 15.20000 0.001000
GW 212  5    -10.00000 10.00000 0.350000 -11.76000 7.760000 2.700000 0.001000
GW 213  10   -11.76000 7.760000 2.700000 -10.00000 10.00000 15.20000 0.001000
GW 214  5    -10.00000 10.00000 0.350000 -12.50000 9.990000 2.700000 0.001000
GW 215  10   -12.50000 9.990000 2.700000 -10.00000 10.00000 15.20000 0.001000
GW 216  3    -10.00000 10.00000 0.200000 -10.00000 10.00000 0.350000 0.001000
GW 217  2    -10.00000 10.00000 0.200000 -10.20000 10.00000 0.200000 0.001000
GW 218  10   -10.20000 10.00000 0.200000 -25.00000 9.920000 0.200000 0.001000
GW 219  2    -10.00000 10.00000 0.200000 -10.19000 10.06000 0.200000 0.001000
GW 220  10   -10.19000 10.06000 0.200000 -24.29000 14.56000 0.200000 0.001000
GW 221  2    -10.00000 10.00000 0.200000 -10.16000 10.12000 0.200000 0.001000
GW 222  10   -10.16000 10.12000 0.200000 -22.18000 18.75000 0.200000 0.001000
GW 223  2    -10.00000 10.00000 0.200000 -10.12000 10.16000 0.200000 0.001000
GW 224  10   -10.12000 10.16000 0.200000 -21.88000 22.07000 0.200000 0.001000
GW 225  2    -10.00000 10.00000 0.200000 -10.06000 10.19000 0.200000 0.001000
GW 226  10   -10.06000 10.19000 0.200000 -14.71000 24.24000 0.200000 0.001000
GW 227  2    -10.00000 10.00000 0.200000 -10.00000 10.20000 0.200000 0.001000
GW 228  10   -10.00000 10.20000 0.200000 -10.08000 25.00000 0.200000 0.001000
GW 300  5    10.00000 -10.00000 0.350000 11.78000 -11.76000 2.700000 0.001000
GW 301  10   11.78000 -11.76000 2.700000 10.00000 -10.00000 15.20000 0.001000
GW 302  5    10.00000 -10.00000 0.350000 10.01000 -12.50000 2.700000 0.001000
GW 303  10   10.01000 -12.50000 2.700000 10.00000 -10.00000 15.20000 0.001000
GW 304  5    10.00000 -10.00000 0.350000 7.780000 -11.78000 2.700000 0.001000
GW 305  10   7.780000 -11.78000 2.700000 10.00000 -10.00000 15.20000 0.001000
GW 306  5    10.00000 -10.00000 0.350000 7.500000 -10.01000 2.700000 0.001000
GW 307  10   7.500000 -10.01000 2.700000 10.00000 -10.00000 15.20000 0.001000
GW 308  5    10.00000 -10.00000 0.350000 7.760000 -7.780000 2.700000 0.001000
GW 309  10   7.760000 -7.780000 2.700000 10.00000 -10.00000 15.20000 0.001000
GW 310  5    10.00000 -10.00000 0.350000 9.990000 -7.500000 2.700000 0.001000
GW 311  10   9.990000 -7.500000 2.700000 10.00000 -10.00000 15.20000 0.001000
GW 312  5    10.00000 -10.00000 0.350000 11.76000 -7.760000 2.700000 0.001000
GW 313  10   11.76000 -7.760000 2.700000 10.00000 -10.00000 15.20000 0.001000
GW 314  5    10.00000 -10.00000 0.350000 12.50000 -9.990000 2.700000 0.001000
GW 315  10   12.50000 -9.990000 2.700000 10.00000 -10.00000 15.20000 0.001000
GW 316  3    10.00000 -10.00000 0.200000 10.00000 -10.00000 0.350000 0.001000
GW 317  2    10.00000 -10.00000 0.200000 10.20000 -10.00000 0.200000 0.001000
GW 318  10   10.20000 -10.00000 0.200000 25.00000 -9.920000 0.200000 0.001000
GW 319  2    10.00000 -10.00000 0.200000 10.19000 -10.06000 0.200000 0.001000
GW 320  10   10.19000 -10.06000 0.200000 24.29000 -14.56000 0.200000 0.001000
GW 321  2    10.00000 -10.00000 0.200000 10.16000 -10.12000 0.200000 0.001000
GW 322  10   10.16000 -10.12000 0.200000 22.18000 -18.75000 0.200000 0.001000
GW 323  2    10.00000 -10.00000 0.200000 10.12000 -10.16000 0.200000 0.001000
GW 324  10   10.12000 -10.16000 0.200000 21.88000 -22.07000 0.200000 0.001000
GW 325  2    10.00000 -10.00000 0.200000 10.06000 -10.19000 0.200000 0.001000
GW 326  10   10.06000 -10.19000 0.200000 14.71000 -24.24000 0.200000 0.001000
GW 327  2    10.00000 -10.00000 0.200000 10.00000 -10.20000 0.200000 0.001000
GW 328  10   10.00000 -10.20000 0.200000 10.08000 -25.00000 0.200000 0.001000
GW 400  5    -10.00000 -10.00000 0.350000 -11.76000 -11.78000 2.700000 0.001000
GW 401  10   -11.76000 -11.78000 2.700000 -10.00000 -10.00000 15.20000 0.001000
GW 402  5    -10.00000 -10.00000 0.350000 -12.50000 -10.01000 2.700000 0.001000
GW 403  10   -12.50000 -10.01000 2.700000 -10.00000 -10.00000 15.20000 0.001000
GW 404  5    -10.00000 -10.00000 0.350000 -11.78000 -7.780000 2.700000 0.001000
GW 405  10   -11.78000 -7.780000 2.700000 -10.00000 -10.00000 15.20000 0.001000
GW 406  5    -10.00000 -10.00000 0.350000 -10.01000 -7.500000 2.700000 0.001000
GW 407  10   -10.01000 -7.500000 2.700000 -10.00000 -10.00000 15.20000 0.001000
GW 408  5    -10.00000 -10.00000 0.350000 -7.780000 -7.760000 2.700000 0.001000
GW 409  10   -7.780000 -7.760000 2.700000 -10.00000 -10.00000 15.20000 0.001000
GW 410  5    -10.00000 -10.00000 0.350000 -7.500000 -9.990000 2.700000 0.001000
GW 411  10   -7.500000 -9.990000 2.700000 -10.00000 -10.00000 15.20000 0.001000
GW 412  5    -10.00000 -10.00000 0.350000 -7.760000 -11.76000 2.700000 0.001000
GW 413  10   -7.760000 -11.76000 2.700000 -10.00000 -10.00000 15.20000 0.001000
GW 414  5    -10.00000 -10.00000 0.350000 -9.990000 -12.50000 2.700000 0.001000
GW 415  10   -9.990000 -12.50000 2.700000 -10.00000 -10.00000 15.20000 0.001000
GW 416  3    -10.00000 -10.00000 0.200000 -10.00000 -10.00000 0.350000 0.001000
GW 417  2    -10.00000 -10.00000 0.200000 -10.00000 -10.20000 0.200000 0.001000
GW 418  10   -10.00000 -10.20000 0.200000 -9.920000 -25.00000 0.200000 0.001000
GW 419  2    -10.00000 -10.00000 0.200000 -10.06000 -10.19000 0.200000 0.001000
GW 420  10   -10.06000 -10.19000 0.200000 -14.56000 -24.29000 0.200000 0.001000
GW 421  2    -10.00000 -10.00000 0.200000 -10.12000 -10.16000 0.200000 0.001000
GW 422  10   -10.12000 -10.16000 0.200000 -18.75000 -22.18000 0.200000 0.001000
GW 423  2    -10.00000 -10.00000 0.200000 -10.16000 -10.12000 0.200000 0.001000
GW 424  10   -10.16000 -10.12000 0.200000 -22.07000 -21.88000 0.200000 0.001000
GW 425  2    -10.00000 -10.00000 0.200000 -10.19000 -10.06000 0.200000 0.001000
GW 426  10   -10.19000 -10.06000 0.200000 -24.24000 -14.71000 0.200000 0.001000
GW 427  2    -10.00000 -10.00000 0.200000 -10.20000 -10.00000 0.200000 0.001000
GW 428  10   -10.20000 -10.00000 0.200000 -25.00000 -10.08000 0.200000 0.001000
GE 1 
GN  2  0  0  0  10.0  0.01 
FR  0  0  0  0   5.0 
EX  0 116  2  0   7.7580E+000   4.6831E-001 
EX  0 216  2  0   -1.1109E+000   5.3463E+000 
EX  0 316  2  0   -1.1455E+000   5.3401E+000 
EX  0 416  2  0   -3.9524E+000   -3.8647E+000 
PT -1
RP  0  19  72  1010 0.0 0.0 5.0 5.0
EN
