CM
CE
GW 100  5    20.00000 20.00000 0.350000 21.76000 21.78000 2.700000 0.001000
GW 101  10   21.76000 21.78000 2.700000 20.00000 20.00000 15.20000 0.001000
GW 102  5    20.00000 20.00000 0.350000 22.50000 20.01000 2.700000 0.001000
GW 103  10   22.50000 20.01000 2.700000 20.00000 20.00000 15.20000 0.001000
GW 104  5    20.00000 20.00000 0.350000 21.78000 17.78000 2.700000 0.001000
GW 105  10   21.78000 17.78000 2.700000 20.00000 20.00000 15.20000 0.001000
GW 106  5    20.00000 20.00000 0.350000 20.01000 17.50000 2.700000 0.001000
GW 107  10   20.01000 17.50000 2.700000 20.00000 20.00000 15.20000 0.001000
GW 108  5    20.00000 20.00000 0.350000 17.78000 17.76000 2.700000 0.001000
GW 109  10   17.78000 17.76000 2.700000 20.00000 20.00000 15.20000 0.001000
GW 110  5    20.00000 20.00000 0.350000 17.50000 19.99000 2.700000 0.001000
GW 111  10   17.50000 19.99000 2.700000 20.00000 20.00000 15.20000 0.001000
GW 112  5    20.00000 20.00000 0.350000 17.76000 21.76000 2.700000 0.001000
GW 113  10   17.76000 21.76000 2.700000 20.00000 20.00000 15.20000 0.001000
GW 114  5    20.00000 20.00000 0.350000 19.99000 22.50000 2.700000 0.001000
GW 115  10   19.99000 22.50000 2.700000 20.00000 20.00000 15.20000 0.001000
GW 116  3    20.00000 20.00000 0.200000 20.00000 20.00000 0.350000 0.001000
GW 117  2    20.00000 20.00000 0.200000 20.00000 20.20000 0.200000 0.001000
GW 118  10   20.00000 20.20000 0.200000 19.92000 35.00000 0.200000 0.001000
GW 119  2    20.00000 20.00000 0.200000 20.06000 20.19000 0.200000 0.001000
GW 120  10   20.06000 20.19000 0.200000 24.56000 34.29000 0.200000 0.001000
GW 121  2    20.00000 20.00000 0.200000 20.12000 20.16000 0.200000 0.001000
GW 122  10   20.12000 20.16000 0.200000 28.75000 32.18000 0.200000 0.001000
GW 123  2    20.00000 20.00000 0.200000 20.16000 20.12000 0.200000 0.001000
GW 124  10   20.16000 20.12000 0.200000 32.07000 31.88000 0.200000 0.001000
GW 125  2    20.00000 20.00000 0.200000 20.19000 20.06000 0.200000 0.001000
GW 126  10   20.19000 20.06000 0.200000 34.24000 24.71000 0.200000 0.001000
GW 127  2    20.00000 20.00000 0.200000 20.20000 20.00000 0.200000 0.001000
GW 128  10   20.20000 20.00000 0.200000 35.00000 20.08000 0.200000 0.001000
GW 200  5    0.000000 20.00000 0.350000 -0.010000 22.50000 2.700000 0.001000
GW 201  10   -0.010000 22.50000 2.700000 0.000000 20.00000 15.20000 0.001000
GW 202  5    0.000000 20.00000 0.350000 1.760000 21.78000 2.700000 0.001000
GW 203  10   1.760000 21.78000 2.700000 0.000000 20.00000 15.20000 0.001000
GW 204  5    0.000000 20.00000 0.350000 2.830000 19.69000 2.700000 0.001000
GW 205  10   2.830000 19.69000 2.700000 0.000000 20.00000 15.20000 0.001000
GW 206  5    0.000000 20.00000 0.350000 1.780000 18.24000 2.700000 0.001000
GW 207  10   1.780000 18.24000 2.700000 0.000000 20.00000 15.20000 0.001000
GW 208  5    0.000000 20.00000 0.350000 0.020000 16.84000 2.700000 0.001000
GW 209  10   0.020000 16.84000 2.700000 0.000000 20.00000 15.20000 0.001000
GW 210  5    0.000000 20.00000 0.350000 -1.760000 18.22000 2.700000 0.001000
GW 211  10   -1.760000 18.22000 2.700000 0.000000 20.00000 15.20000 0.001000
GW 212  5    0.000000 20.00000 0.350000 -2.830000 19.66000 2.700000 0.001000
GW 213  10   -2.830000 19.66000 2.700000 0.000000 20.00000 15.20000 0.001000
GW 214  5    0.000000 20.00000 0.350000 -1.780000 21.76000 2.700000 0.001000
GW 215  10   -1.780000 21.76000 2.700000 0.000000 20.00000 15.20000 0.001000
GW 216  3    0.000000 20.00000 0.200000 0.000000 20.00000 0.350000 0.001000
GW 217  2    0.000000 20.00000 0.200000 -0.140000 20.14000 0.200000 0.001000
GW 218  10   -0.140000 20.14000 0.200000 -10.66000 30.55000 0.200000 0.001000
GW 219  2    0.000000 20.00000 0.200000 -0.090000 20.18000 0.200000 0.001000
GW 220  10   -0.090000 20.18000 0.200000 -6.880000 33.33000 0.200000 0.001000
GW 221  2    0.000000 20.00000 0.200000 -0.030000 20.20000 0.200000 0.001000
GW 222  10   -0.030000 20.20000 0.200000 -2.430000 34.80000 0.200000 0.001000
GW 223  2    0.000000 20.00000 0.200000 0.030000 20.20000 0.200000 0.001000
GW 224  10   0.030000 20.20000 0.200000 0.130000 36.94000 0.200000 0.001000
GW 225  2    0.000000 20.00000 0.200000 0.090000 20.18000 0.200000 0.001000
GW 226  10   0.090000 20.18000 0.200000 6.740000 33.40000 0.200000 0.001000
GW 227  2    0.000000 20.00000 0.200000 0.140000 20.14000 0.200000 0.001000
GW 228  10   0.140000 20.14000 0.200000 10.55000 30.66000 0.200000 0.001000
GW 300  5    -20.00000 20.00000 0.350000 -21.78000 21.76000 2.700000 0.001000
GW 301  10   -21.78000 21.76000 2.700000 -20.00000 20.00000 15.20000 0.001000
GW 302  5    -20.00000 20.00000 0.350000 -20.01000 22.50000 2.700000 0.001000
GW 303  10   -20.01000 22.50000 2.700000 -20.00000 20.00000 15.20000 0.001000
GW 304  5    -20.00000 20.00000 0.350000 -17.78000 21.78000 2.700000 0.001000
GW 305  10   -17.78000 21.78000 2.700000 -20.00000 20.00000 15.20000 0.001000
GW 306  5    -20.00000 20.00000 0.350000 -17.50000 20.01000 2.700000 0.001000
GW 307  10   -17.50000 20.01000 2.700000 -20.00000 20.00000 15.20000 0.001000
GW 308  5    -20.00000 20.00000 0.350000 -17.76000 17.78000 2.700000 0.001000
GW 309  10   -17.76000 17.78000 2.700000 -20.00000 20.00000 15.20000 0.001000
GW 310  5    -20.00000 20.00000 0.350000 -19.99000 17.50000 2.700000 0.001000
GW 311  10   -19.99000 17.50000 2.700000 -20.00000 20.00000 15.20000 0.001000
GW 312  5    -20.00000 20.00000 0.350000 -21.76000 17.76000 2.700000 0.001000
GW 313  10   -21.76000 17.76000 2.700000 -20.00000 20.00000 15.20000 0.001000
GW 314  5    -20.00000 20.00000 0.350000 -22.50000 19.99000 2.700000 0.001000
GW 315  10   -22.50000 19.99000 2.700000 -20.00000 20.00000 15.20000 0.001000
GW 316  3    -20.00000 20.00000 0.200000 -20.00000 20.00000 0.350000 0.001000
GW 317  2    -20.00000 20.00000 0.200000 -20.20000 20.00000 0.200000 0.001000
GW 318  10   -20.20000 20.00000 0.200000 -35.00000 19.92000 0.200000 0.001000
GW 319  2    -20.00000 20.00000 0.200000 -20.19000 20.06000 0.200000 0.001000
GW 320  10   -20.19000 20.06000 0.200000 -34.29000 24.56000 0.200000 0.001000
GW 321  2    -20.00000 20.00000 0.200000 -20.16000 20.12000 0.200000 0.001000
GW 322  10   -20.16000 20.12000 0.200000 -32.18000 28.75000 0.200000 0.001000
GW 323  2    -20.00000 20.00000 0.200000 -20.12000 20.16000 0.200000 0.001000
GW 324  10   -20.12000 20.16000 0.200000 -31.88000 32.07000 0.200000 0.001000
GW 325  2    -20.00000 20.00000 0.200000 -20.06000 20.19000 0.200000 0.001000
GW 326  10   -20.06000 20.19000 0.200000 -24.71000 34.24000 0.200000 0.001000
GW 327  2    -20.00000 20.00000 0.200000 -20.00000 20.20000 0.200000 0.001000
GW 328  10   -20.00000 20.20000 0.200000 -20.08000 35.00000 0.200000 0.001000
GW 400  5    20.00000 0.000000 0.350000 22.50000 0.010000 2.700000 0.001000
GW 401  10   22.50000 0.010000 2.700000 20.00000 0.000000 15.20000 0.001000
GW 402  5    20.00000 0.000000 0.350000 21.78000 -1.760000 2.700000 0.001000
GW 403  10   21.78000 -1.760000 2.700000 20.00000 0.000000 15.20000 0.001000
GW 404  5    20.00000 0.000000 0.350000 19.69000 -2.830000 2.700000 0.001000
GW 405  10   19.69000 -2.830000 2.700000 20.00000 0.000000 15.20000 0.001000
GW 406  5    20.00000 0.000000 0.350000 18.24000 -1.780000 2.700000 0.001000
GW 407  10   18.24000 -1.780000 2.700000 20.00000 0.000000 15.20000 0.001000
GW 408  5    20.00000 0.000000 0.350000 16.84000 -0.020000 2.700000 0.001000
GW 409  10   16.84000 -0.020000 2.700000 20.00000 0.000000 15.20000 0.001000
GW 410  5    20.00000 0.000000 0.350000 18.22000 1.760000 2.700000 0.001000
GW 411  10   18.22000 1.760000 2.700000 20.00000 0.000000 15.20000 0.001000
GW 412  5    20.00000 0.000000 0.350000 19.66000 2.830000 2.700000 0.001000
GW 413  10   19.66000 2.830000 2.700000 20.00000 0.000000 15.20000 0.001000
GW 414  5    20.00000 0.000000 0.350000 21.76000 1.780000 2.700000 0.001000
GW 415  10   21.76000 1.780000 2.700000 20.00000 0.000000 15.20000 0.001000
GW 416  3    20.00000 0.000000 0.200000 20.00000 0.000000 0.350000 0.001000
GW 417  2    20.00000 0.000000 0.200000 20.14000 0.140000 0.200000 0.001000
GW 418  10   20.14000 0.140000 0.200000 30.55000 10.66000 0.200000 0.001000
GW 419  2    20.00000 0.000000 0.200000 20.18000 0.090000 0.200000 0.001000
GW 420  10   20.18000 0.090000 0.200000 33.33000 6.880000 0.200000 0.001000
GW 421  2    20.00000 0.000000 0.200000 20.20000 0.030000 0.200000 0.001000
GW 422  10   20.20000 0.030000 0.200000 34.80000 2.430000 0.200000 0.001000
GW 423  2    20.00000 0.000000 0.200000 20.20000 -0.030000 0.200000 0.001000
GW 424  10   20.20000 -0.030000 0.200000 36.94000 -0.130000 0.200000 0.001000
GW 425  2    20.00000 0.000000 0.200000 20.18000 -0.090000 0.200000 0.001000
GW 426  10   20.18000 -0.090000 0.200000 33.40000 -6.740000 0.200000 0.001000
GW 427  2    20.00000 0.000000 0.200000 20.14000 -0.140000 0.200000 0.001000
GW 428  10   20.14000 -0.140000 0.200000 30.66000 -10.55000 0.200000 0.001000
GW 500  5    0.000000 0.000000 0.350000 2.500000 0.010000 2.700000 0.001000
GW 501  10   2.500000 0.010000 2.700000 0.000000 0.000000 15.20000 0.001000
GW 502  5    0.000000 0.000000 0.350000 1.780000 -1.760000 2.700000 0.001000
GW 503  10   1.780000 -1.760000 2.700000 0.000000 0.000000 15.20000 0.001000
GW 504  5    0.000000 0.000000 0.350000 -0.310000 -2.830000 2.700000 0.001000
GW 505  10   -0.310000 -2.830000 2.700000 0.000000 0.000000 15.20000 0.001000
GW 506  5    0.000000 0.000000 0.350000 -1.760000 -1.780000 2.700000 0.001000
GW 507  10   -1.760000 -1.780000 2.700000 0.000000 0.000000 15.20000 0.001000
GW 508  5    0.000000 0.000000 0.350000 -3.160000 -0.020000 2.700000 0.001000
GW 509  10   -3.160000 -0.020000 2.700000 0.000000 0.000000 15.20000 0.001000
GW 510  5    0.000000 0.000000 0.350000 -1.780000 1.760000 2.700000 0.001000
GW 511  10   -1.780000 1.760000 2.700000 0.000000 0.000000 15.20000 0.001000
GW 512  5    0.000000 0.000000 0.350000 -0.340000 2.830000 2.700000 0.001000
GW 513  10   -0.340000 2.830000 2.700000 0.000000 0.000000 15.20000 0.001000
GW 514  5    0.000000 0.000000 0.350000 1.760000 1.780000 2.700000 0.001000
GW 515  10   1.760000 1.780000 2.700000 0.000000 0.000000 15.20000 0.001000
GW 516  3    0.000000 0.000000 0.200000 0.000000 0.000000 0.350000 0.001000
GW 517  2    0.000000 0.000000 0.200000 0.140000 0.140000 0.200000 0.001000
GW 518  10   0.140000 0.140000 0.200000 10.55000 10.66000 0.200000 0.001000
GW 519  2    0.000000 0.000000 0.200000 0.180000 0.090000 0.200000 0.001000
GW 520  10   0.180000 0.090000 0.200000 13.33000 6.880000 0.200000 0.001000
GW 521  2    0.000000 0.000000 0.200000 0.200000 0.030000 0.200000 0.001000
GW 522  10   0.200000 0.030000 0.200000 14.80000 2.430000 0.200000 0.001000
GW 523  2    0.000000 0.000000 0.200000 0.200000 -0.030000 0.200000 0.001000
GW 524  10   0.200000 -0.030000 0.200000 16.94000 -0.130000 0.200000 0.001000
GW 525  2    0.000000 0.000000 0.200000 0.180000 -0.090000 0.200000 0.001000
GW 526  10   0.180000 -0.090000 0.200000 13.40000 -6.740000 0.200000 0.001000
GW 527  2    0.000000 0.000000 0.200000 0.140000 -0.140000 0.200000 0.001000
GW 528  10   0.140000 -0.140000 0.200000 10.66000 -10.55000 0.200000 0.001000
GW 600  5    -20.00000 0.000000 0.350000 -22.50000 -0.010000 2.700000 0.001000
GW 601  10   -22.50000 -0.010000 2.700000 -20.00000 0.000000 15.20000 0.001000
GW 602  5    -20.00000 0.000000 0.350000 -21.78000 1.760000 2.700000 0.001000
GW 603  10   -21.78000 1.760000 2.700000 -20.00000 0.000000 15.20000 0.001000
GW 604  5    -20.00000 0.000000 0.350000 -19.69000 2.830000 2.700000 0.001000
GW 605  10   -19.69000 2.830000 2.700000 -20.00000 0.000000 15.20000 0.001000
GW 606  5    -20.00000 0.000000 0.350000 -18.24000 1.780000 2.700000 0.001000
GW 607  10   -18.24000 1.780000 2.700000 -20.00000 0.000000 15.20000 0.001000
GW 608  5    -20.00000 0.000000 0.350000 -16.84000 0.020000 2.700000 0.001000
GW 609  10   -16.84000 0.020000 2.700000 -20.00000 0.000000 15.20000 0.001000
GW 610  5    -20.00000 0.000000 0.350000 -18.22000 -1.760000 2.700000 0.001000
GW 611  10   -18.22000 -1.760000 2.700000 -20.00000 0.000000 15.20000 0.001000
GW 612  5    -20.00000 0.000000 0.350000 -19.66000 -2.830000 2.700000 0.001000
GW 613  10   -19.66000 -2.830000 2.700000 -20.00000 0.000000 15.20000 0.001000
GW 614  5    -20.00000 0.000000 0.350000 -21.76000 -1.780000 2.700000 0.001000
GW 615  10   -21.76000 -1.780000 2.700000 -20.00000 0.000000 15.20000 0.001000
GW 616  3    -20.00000 0.000000 0.200000 -20.00000 0.000000 0.350000 0.001000
GW 617  2    -20.00000 0.000000 0.200000 -20.14000 -0.140000 0.200000 0.001000
GW 618  10   -20.14000 -0.140000 0.200000 -30.55000 -10.66000 0.200000 0.001000
GW 619  2    -20.00000 0.000000 0.200000 -20.18000 -0.090000 0.200000 0.001000
GW 620  10   -20.18000 -0.090000 0.200000 -33.33000 -6.880000 0.200000 0.001000
GW 621  2    -20.00000 0.000000 0.200000 -20.20000 -0.030000 0.200000 0.001000
GW 622  10   -20.20000 -0.030000 0.200000 -34.80000 -2.430000 0.200000 0.001000
GW 623  2    -20.00000 0.000000 0.200000 -20.20000 0.030000 0.200000 0.001000
GW 624  10   -20.20000 0.030000 0.200000 -36.94000 0.130000 0.200000 0.001000
GW 625  2    -20.00000 0.000000 0.200000 -20.18000 0.090000 0.200000 0.001000
GW 626  10   -20.18000 0.090000 0.200000 -33.40000 6.740000 0.200000 0.001000
GW 627  2    -20.00000 0.000000 0.200000 -20.14000 0.140000 0.200000 0.001000
GW 628  10   -20.14000 0.140000 0.200000 -30.66000 10.55000 0.200000 0.001000
GW 700  5    20.00000 -20.00000 0.350000 21.78000 -21.76000 2.700000 0.001000
GW 701  10   21.78000 -21.76000 2.700000 20.00000 -20.00000 15.20000 0.001000
GW 702  5    20.00000 -20.00000 0.350000 20.01000 -22.50000 2.700000 0.001000
GW 703  10   20.01000 -22.50000 2.700000 20.00000 -20.00000 15.20000 0.001000
GW 704  5    20.00000 -20.00000 0.350000 17.78000 -21.78000 2.700000 0.001000
GW 705  10   17.78000 -21.78000 2.700000 20.00000 -20.00000 15.20000 0.001000
GW 706  5    20.00000 -20.00000 0.350000 17.50000 -20.01000 2.700000 0.001000
GW 707  10   17.50000 -20.01000 2.700000 20.00000 -20.00000 15.20000 0.001000
GW 708  5    20.00000 -20.00000 0.350000 17.76000 -17.78000 2.700000 0.001000
GW 709  10   17.76000 -17.78000 2.700000 20.00000 -20.00000 15.20000 0.001000
GW 710  5    20.00000 -20.00000 0.350000 19.99000 -17.50000 2.700000 0.001000
GW 711  10   19.99000 -17.50000 2.700000 20.00000 -20.00000 15.20000 0.001000
GW 712  5    20.00000 -20.00000 0.350000 21.76000 -17.76000 2.700000 0.001000
GW 713  10   21.76000 -17.76000 2.700000 20.00000 -20.00000 15.20000 0.001000
GW 714  5    20.00000 -20.00000 0.350000 22.50000 -19.99000 2.700000 0.001000
GW 715  10   22.50000 -19.99000 2.700000 20.00000 -20.00000 15.20000 0.001000
GW 716  3    20.00000 -20.00000 0.200000 20.00000 -20.00000 0.350000 0.001000
GW 717  2    20.00000 -20.00000 0.200000 20.20000 -20.00000 0.200000 0.001000
GW 718  10   20.20000 -20.00000 0.200000 35.00000 -19.92000 0.200000 0.001000
GW 719  2    20.00000 -20.00000 0.200000 20.19000 -20.06000 0.200000 0.001000
GW 720  10   20.19000 -20.06000 0.200000 34.29000 -24.56000 0.200000 0.001000
GW 721  2    20.00000 -20.00000 0.200000 20.16000 -20.12000 0.200000 0.001000
GW 722  10   20.16000 -20.12000 0.200000 32.18000 -28.75000 0.200000 0.001000
GW 723  2    20.00000 -20.00000 0.200000 20.12000 -20.16000 0.200000 0.001000
GW 724  10   20.12000 -20.16000 0.200000 31.88000 -32.07000 0.200000 0.001000
GW 725  2    20.00000 -20.00000 0.200000 20.06000 -20.19000 0.200000 0.001000
GW 726  10   20.06000 -20.19000 0.200000 24.71000 -34.24000 0.200000 0.001000
GW 727  2    20.00000 -20.00000 0.200000 20.00000 -20.20000 0.200000 0.001000
GW 728  10   20.00000 -20.20000 0.200000 20.08000 -35.00000 0.200000 0.001000
GW 800  5    0.000000 -20.00000 0.350000 0.010000 -22.50000 2.700000 0.001000
GW 801  10   0.010000 -22.50000 2.700000 0.000000 -20.00000 15.20000 0.001000
GW 802  5    0.000000 -20.00000 0.350000 -1.760000 -21.78000 2.700000 0.001000
GW 803  10   -1.760000 -21.78000 2.700000 0.000000 -20.00000 15.20000 0.001000
GW 804  5    0.000000 -20.00000 0.350000 -2.830000 -19.69000 2.700000 0.001000
GW 805  10   -2.830000 -19.69000 2.700000 0.000000 -20.00000 15.20000 0.001000
GW 806  5    0.000000 -20.00000 0.350000 -1.780000 -18.24000 2.700000 0.001000
GW 807  10   -1.780000 -18.24000 2.700000 0.000000 -20.00000 15.20000 0.001000
GW 808  5    0.000000 -20.00000 0.350000 -0.020000 -16.84000 2.700000 0.001000
GW 809  10   -0.020000 -16.84000 2.700000 0.000000 -20.00000 15.20000 0.001000
GW 810  5    0.000000 -20.00000 0.350000 1.760000 -18.22000 2.700000 0.001000
GW 811  10   1.760000 -18.22000 2.700000 0.000000 -20.00000 15.20000 0.001000
GW 812  5    0.000000 -20.00000 0.350000 2.830000 -19.66000 2.700000 0.001000
GW 813  10   2.830000 -19.66000 2.700000 0.000000 -20.00000 15.20000 0.001000
GW 814  5    0.000000 -20.00000 0.350000 1.780000 -21.76000 2.700000 0.001000
GW 815  10   1.780000 -21.76000 2.700000 0.000000 -20.00000 15.20000 0.001000
GW 816  3    0.000000 -20.00000 0.200000 0.000000 -20.00000 0.350000 0.001000
GW 817  2    0.000000 -20.00000 0.200000 0.140000 -20.14000 0.200000 0.001000
GW 818  10   0.140000 -20.14000 0.200000 10.66000 -30.55000 0.200000 0.001000
GW 819  2    0.000000 -20.00000 0.200000 0.090000 -20.18000 0.200000 0.001000
GW 820  10   0.090000 -20.18000 0.200000 6.880000 -33.33000 0.200000 0.001000
GW 821  2    0.000000 -20.00000 0.200000 0.030000 -20.20000 0.200000 0.001000
GW 822  10   0.030000 -20.20000 0.200000 2.430000 -34.80000 0.200000 0.001000
GW 823  2    0.000000 -20.00000 0.200000 -0.030000 -20.20000 0.200000 0.001000
GW 824  10   -0.030000 -20.20000 0.200000 -0.130000 -36.94000 0.200000 0.001000
GW 825  2    0.000000 -20.00000 0.200000 -0.090000 -20.18000 0.200000 0.001000
GW 826  10   -0.090000 -20.18000 0.200000 -6.740000 -33.40000 0.200000 0.001000
GW 827  2    0.000000 -20.00000 0.200000 -0.140000 -20.14000 0.200000 0.001000
GW 828  10   -0.140000 -20.14000 0.200000 -10.55000 -30.66000 0.200000 0.001000
GW 900  5    -20.00000 -20.00000 0.350000 -21.76000 -21.78000 2.700000 0.001000
GW 901  10   -21.76000 -21.78000 2.700000 -20.00000 -20.00000 15.20000 0.001000
GW 902  5    -20.00000 -20.00000 0.350000 -22.50000 -20.01000 2.700000 0.001000
GW 903  10   -22.50000 -20.01000 2.700000 -20.00000 -20.00000 15.20000 0.001000
GW 904  5    -20.00000 -20.00000 0.350000 -21.78000 -17.78000 2.700000 0.001000
GW 905  10   -21.78000 -17.78000 2.700000 -20.00000 -20.00000 15.20000 0.001000
GW 906  5    -20.00000 -20.00000 0.350000 -20.01000 -17.50000 2.700000 0.001000
GW 907  10   -20.01000 -17.50000 2.700000 -20.00000 -20.00000 15.20000 0.001000
GW 908  5    -20.00000 -20.00000 0.350000 -17.78000 -17.76000 2.700000 0.001000
GW 909  10   -17.78000 -17.76000 2.700000 -20.00000 -20.00000 15.20000 0.001000
GW 910  5    -20.00000 -20.00000 0.350000 -17.50000 -19.99000 2.700000 0.001000
GW 911  10   -17.50000 -19.99000 2.700000 -20.00000 -20.00000 15.20000 0.001000
GW 912  5    -20.00000 -20.00000 0.350000 -17.76000 -21.76000 2.700000 0.001000
GW 913  10   -17.76000 -21.76000 2.700000 -20.00000 -20.00000 15.20000 0.001000
GW 914  5    -20.00000 -20.00000 0.350000 -19.99000 -22.50000 2.700000 0.001000
GW 915  10   -19.99000 -22.50000 2.700000 -20.00000 -20.00000 15.20000 0.001000
GW 916  3    -20.00000 -20.00000 0.200000 -20.00000 -20.00000 0.350000 0.001000
GW 917  2    -20.00000 -20.00000 0.200000 -20.00000 -20.20000 0.200000 0.001000
GW 918  10   -20.00000 -20.20000 0.200000 -19.92000 -35.00000 0.200000 0.001000
GW 919  2    -20.00000 -20.00000 0.200000 -20.06000 -20.19000 0.200000 0.001000
GW 920  10   -20.06000 -20.19000 0.200000 -24.56000 -34.29000 0.200000 0.001000
GW 921  2    -20.00000 -20.00000 0.200000 -20.12000 -20.16000 0.200000 0.001000
GW 922  10   -20.12000 -20.16000 0.200000 -28.75000 -32.18000 0.200000 0.001000
GW 923  2    -20.00000 -20.00000 0.200000 -20.16000 -20.12000 0.200000 0.001000
GW 924  10   -20.16000 -20.12000 0.200000 -32.07000 -31.88000 0.200000 0.001000
GW 925  2    -20.00000 -20.00000 0.200000 -20.19000 -20.06000 0.200000 0.001000
GW 926  10   -20.19000 -20.06000 0.200000 -34.24000 -24.71000 0.200000 0.001000
GW 927  2    -20.00000 -20.00000 0.200000 -20.20000 -20.00000 0.200000 0.001000
GW 928  10   -20.20000 -20.00000 0.200000 -35.00000 -20.08000 0.200000 0.001000
GE 1 
GN  2  0  0  0  10.0  0.01 
FR  0  0  0  0   5.0 
EX  0 116  2  0    1.0000E+000    0.0000E+000 
EX  0 216  2  0    1.0000E+000    0.0000E+000 
EX  0 316  2  0    1.0000E+000    0.0000E+000 
EX  0 416  2  0    1.0000E+000    0.0000E+000 
EX  0 516  2  0    1.0000E+000    0.0000E+000 
EX  0 616  2  0    1.0000E+000    0.0000E+000 
EX  0 716  2  0    1.0000E+000    0.0000E+000 
EX  0 816  2  0    1.0000E+000    0.0000E+000 
EX  0 916  2  0    1.0000E+000    0.0000E+000 
PT -1
RP  0  19  72  1010 0.0 0.0 5.0 5.0
EN
