CM
CE
GW 100  25   20.00000 20.00000 0.350000 21.76000 21.78000 2.700000 0.001000
GW 101  50   21.76000 21.78000 2.700000 20.00000 20.00000 15.20000 0.001000
GW 102  25   20.00000 20.00000 0.350000 22.50000 20.01000 2.700000 0.001000
GW 103  50   22.50000 20.01000 2.700000 20.00000 20.00000 15.20000 0.001000
GW 104  25   20.00000 20.00000 0.350000 21.78000 17.78000 2.700000 0.001000
GW 105  50   21.78000 17.78000 2.700000 20.00000 20.00000 15.20000 0.001000
GW 106  25   20.00000 20.00000 0.350000 20.01000 17.50000 2.700000 0.001000
GW 107  50   20.01000 17.50000 2.700000 20.00000 20.00000 15.20000 0.001000
GW 108  25   20.00000 20.00000 0.350000 17.78000 17.76000 2.700000 0.001000
GW 109  50   17.78000 17.76000 2.700000 20.00000 20.00000 15.20000 0.001000
GW 110  25   20.00000 20.00000 0.350000 17.50000 19.99000 2.700000 0.001000
GW 111  50   17.50000 19.99000 2.700000 20.00000 20.00000 15.20000 0.001000
GW 112  25   20.00000 20.00000 0.350000 17.76000 21.76000 2.700000 0.001000
GW 113  50   17.76000 21.76000 2.700000 20.00000 20.00000 15.20000 0.001000
GW 114  25   20.00000 20.00000 0.350000 19.99000 22.50000 2.700000 0.001000
GW 115  50   19.99000 22.50000 2.700000 20.00000 20.00000 15.20000 0.001000
GW 116  3    20.00000 20.00000 -0.350000 20.00000 20.00000 0.350000 0.001000
GW 117  25   20.00000 20.00000 -0.350000 21.76000 21.78000 -2.700000 0.001000
GW 118  50   21.76000 21.78000 -2.700000 20.00000 20.00000 -15.20000 0.001000
GW 119  25   20.00000 20.00000 -0.350000 22.50000 20.01000 -2.700000 0.001000
GW 120  50   22.50000 20.01000 -2.700000 20.00000 20.00000 -15.20000 0.001000
GW 121  25   20.00000 20.00000 -0.350000 21.78000 17.78000 -2.700000 0.001000
GW 122  50   21.78000 17.78000 -2.700000 20.00000 20.00000 -15.20000 0.001000
GW 123  25   20.00000 20.00000 -0.350000 20.01000 17.50000 -2.700000 0.001000
GW 124  50   20.01000 17.50000 -2.700000 20.00000 20.00000 -15.20000 0.001000
GW 125  25   20.00000 20.00000 -0.350000 17.78000 17.76000 -2.700000 0.001000
GW 126  50   17.78000 17.76000 -2.700000 20.00000 20.00000 -15.20000 0.001000
GW 127  25   20.00000 20.00000 -0.350000 17.50000 19.99000 -2.700000 0.001000
GW 128  50   17.50000 19.99000 -2.700000 20.00000 20.00000 -15.20000 0.001000
GW 129  25   20.00000 20.00000 -0.350000 17.76000 21.76000 -2.700000 0.001000
GW 130  50   17.76000 21.76000 -2.700000 20.00000 20.00000 -15.20000 0.001000
GW 131  25   20.00000 20.00000 -0.350000 19.99000 22.50000 -2.700000 0.001000
GW 132  50   19.99000 22.50000 -2.700000 20.00000 20.00000 -15.20000 0.001000
GW 200  25   0.000000 20.00000 0.350000 -0.010000 22.50000 2.700000 0.001000
GW 201  50   -0.010000 22.50000 2.700000 0.000000 20.00000 15.20000 0.001000
GW 202  25   0.000000 20.00000 0.350000 1.760000 21.78000 2.700000 0.001000
GW 203  50   1.760000 21.78000 2.700000 0.000000 20.00000 15.20000 0.001000
GW 204  25   0.000000 20.00000 0.350000 2.830000 19.69000 2.700000 0.001000
GW 205  50   2.830000 19.69000 2.700000 0.000000 20.00000 15.20000 0.001000
GW 206  25   0.000000 20.00000 0.350000 1.780000 18.24000 2.700000 0.001000
GW 207  50   1.780000 18.24000 2.700000 0.000000 20.00000 15.20000 0.001000
GW 208  25   0.000000 20.00000 0.350000 0.020000 16.84000 2.700000 0.001000
GW 209  50   0.020000 16.84000 2.700000 0.000000 20.00000 15.20000 0.001000
GW 210  25   0.000000 20.00000 0.350000 -1.760000 18.22000 2.700000 0.001000
GW 211  50   -1.760000 18.22000 2.700000 0.000000 20.00000 15.20000 0.001000
GW 212  25   0.000000 20.00000 0.350000 -2.830000 19.66000 2.700000 0.001000
GW 213  50   -2.830000 19.66000 2.700000 0.000000 20.00000 15.20000 0.001000
GW 214  25   0.000000 20.00000 0.350000 -1.780000 21.76000 2.700000 0.001000
GW 215  50   -1.780000 21.76000 2.700000 0.000000 20.00000 15.20000 0.001000
GW 216  3    0.000000 20.00000 -0.350000 0.000000 20.00000 0.350000 0.001000
GW 217  25   0.000000 20.00000 -0.350000 -0.010000 22.50000 -2.700000 0.001000
GW 218  50   -0.010000 22.50000 -2.700000 0.000000 20.00000 -15.20000 0.001000
GW 219  25   0.000000 20.00000 -0.350000 1.760000 21.78000 -2.700000 0.001000
GW 220  50   1.760000 21.78000 -2.700000 0.000000 20.00000 -15.20000 0.001000
GW 221  25   0.000000 20.00000 -0.350000 2.830000 19.69000 -2.700000 0.001000
GW 222  50   2.830000 19.69000 -2.700000 0.000000 20.00000 -15.20000 0.001000
GW 223  25   0.000000 20.00000 -0.350000 1.780000 18.24000 -2.700000 0.001000
GW 224  50   1.780000 18.24000 -2.700000 0.000000 20.00000 -15.20000 0.001000
GW 225  25   0.000000 20.00000 -0.350000 0.020000 16.84000 -2.700000 0.001000
GW 226  50   0.020000 16.84000 -2.700000 0.000000 20.00000 -15.20000 0.001000
GW 227  25   0.000000 20.00000 -0.350000 -1.760000 18.22000 -2.700000 0.001000
GW 228  50   -1.760000 18.22000 -2.700000 0.000000 20.00000 -15.20000 0.001000
GW 229  25   0.000000 20.00000 -0.350000 -2.830000 19.66000 -2.700000 0.001000
GW 230  50   -2.830000 19.66000 -2.700000 0.000000 20.00000 -15.20000 0.001000
GW 231  25   0.000000 20.00000 -0.350000 -1.780000 21.76000 -2.700000 0.001000
GW 232  50   -1.780000 21.76000 -2.700000 0.000000 20.00000 -15.20000 0.001000
GW 300  25   -20.00000 20.00000 0.350000 -21.78000 21.76000 2.700000 0.001000
GW 301  50   -21.78000 21.76000 2.700000 -20.00000 20.00000 15.20000 0.001000
GW 302  25   -20.00000 20.00000 0.350000 -20.01000 22.50000 2.700000 0.001000
GW 303  50   -20.01000 22.50000 2.700000 -20.00000 20.00000 15.20000 0.001000
GW 304  25   -20.00000 20.00000 0.350000 -17.78000 21.78000 2.700000 0.001000
GW 305  50   -17.78000 21.78000 2.700000 -20.00000 20.00000 15.20000 0.001000
GW 306  25   -20.00000 20.00000 0.350000 -17.50000 20.01000 2.700000 0.001000
GW 307  50   -17.50000 20.01000 2.700000 -20.00000 20.00000 15.20000 0.001000
GW 308  25   -20.00000 20.00000 0.350000 -17.76000 17.78000 2.700000 0.001000
GW 309  50   -17.76000 17.78000 2.700000 -20.00000 20.00000 15.20000 0.001000
GW 310  25   -20.00000 20.00000 0.350000 -19.99000 17.50000 2.700000 0.001000
GW 311  50   -19.99000 17.50000 2.700000 -20.00000 20.00000 15.20000 0.001000
GW 312  25   -20.00000 20.00000 0.350000 -21.76000 17.76000 2.700000 0.001000
GW 313  50   -21.76000 17.76000 2.700000 -20.00000 20.00000 15.20000 0.001000
GW 314  25   -20.00000 20.00000 0.350000 -22.50000 19.99000 2.700000 0.001000
GW 315  50   -22.50000 19.99000 2.700000 -20.00000 20.00000 15.20000 0.001000
GW 316  3    -20.00000 20.00000 -0.350000 -20.00000 20.00000 0.350000 0.001000
GW 317  25   -20.00000 20.00000 -0.350000 -21.78000 21.76000 -2.700000 0.001000
GW 318  50   -21.78000 21.76000 -2.700000 -20.00000 20.00000 -15.20000 0.001000
GW 319  25   -20.00000 20.00000 -0.350000 -20.01000 22.50000 -2.700000 0.001000
GW 320  50   -20.01000 22.50000 -2.700000 -20.00000 20.00000 -15.20000 0.001000
GW 321  25   -20.00000 20.00000 -0.350000 -17.78000 21.78000 -2.700000 0.001000
GW 322  50   -17.78000 21.78000 -2.700000 -20.00000 20.00000 -15.20000 0.001000
GW 323  25   -20.00000 20.00000 -0.350000 -17.50000 20.01000 -2.700000 0.001000
GW 324  50   -17.50000 20.01000 -2.700000 -20.00000 20.00000 -15.20000 0.001000
GW 325  25   -20.00000 20.00000 -0.350000 -17.76000 17.78000 -2.700000 0.001000
GW 326  50   -17.76000 17.78000 -2.700000 -20.00000 20.00000 -15.20000 0.001000
GW 327  25   -20.00000 20.00000 -0.350000 -19.99000 17.50000 -2.700000 0.001000
GW 328  50   -19.99000 17.50000 -2.700000 -20.00000 20.00000 -15.20000 0.001000
GW 329  25   -20.00000 20.00000 -0.350000 -21.76000 17.76000 -2.700000 0.001000
GW 330  50   -21.76000 17.76000 -2.700000 -20.00000 20.00000 -15.20000 0.001000
GW 331  25   -20.00000 20.00000 -0.350000 -22.50000 19.99000 -2.700000 0.001000
GW 332  50   -22.50000 19.99000 -2.700000 -20.00000 20.00000 -15.20000 0.001000
GW 400  25   20.00000 0.000000 0.350000 22.50000 0.010000 2.700000 0.001000
GW 401  50   22.50000 0.010000 2.700000 20.00000 0.000000 15.20000 0.001000
GW 402  25   20.00000 0.000000 0.350000 21.78000 -1.760000 2.700000 0.001000
GW 403  50   21.78000 -1.760000 2.700000 20.00000 0.000000 15.20000 0.001000
GW 404  25   20.00000 0.000000 0.350000 19.69000 -2.830000 2.700000 0.001000
GW 405  50   19.69000 -2.830000 2.700000 20.00000 0.000000 15.20000 0.001000
GW 406  25   20.00000 0.000000 0.350000 18.24000 -1.780000 2.700000 0.001000
GW 407  50   18.24000 -1.780000 2.700000 20.00000 0.000000 15.20000 0.001000
GW 408  25   20.00000 0.000000 0.350000 16.84000 -0.020000 2.700000 0.001000
GW 409  50   16.84000 -0.020000 2.700000 20.00000 0.000000 15.20000 0.001000
GW 410  25   20.00000 0.000000 0.350000 18.22000 1.760000 2.700000 0.001000
GW 411  50   18.22000 1.760000 2.700000 20.00000 0.000000 15.20000 0.001000
GW 412  25   20.00000 0.000000 0.350000 19.66000 2.830000 2.700000 0.001000
GW 413  50   19.66000 2.830000 2.700000 20.00000 0.000000 15.20000 0.001000
GW 414  25   20.00000 0.000000 0.350000 21.76000 1.780000 2.700000 0.001000
GW 415  50   21.76000 1.780000 2.700000 20.00000 0.000000 15.20000 0.001000
GW 416  3    20.00000 0.000000 -0.350000 20.00000 0.000000 0.350000 0.001000
GW 417  25   20.00000 0.000000 -0.350000 22.50000 0.010000 -2.700000 0.001000
GW 418  50   22.50000 0.010000 -2.700000 20.00000 0.000000 -15.20000 0.001000
GW 419  25   20.00000 0.000000 -0.350000 21.78000 -1.760000 -2.700000 0.001000
GW 420  50   21.78000 -1.760000 -2.700000 20.00000 0.000000 -15.20000 0.001000
GW 421  25   20.00000 0.000000 -0.350000 19.69000 -2.830000 -2.700000 0.001000
GW 422  50   19.69000 -2.830000 -2.700000 20.00000 0.000000 -15.20000 0.001000
GW 423  25   20.00000 0.000000 -0.350000 18.24000 -1.780000 -2.700000 0.001000
GW 424  50   18.24000 -1.780000 -2.700000 20.00000 0.000000 -15.20000 0.001000
GW 425  25   20.00000 0.000000 -0.350000 16.84000 -0.020000 -2.700000 0.001000
GW 426  50   16.84000 -0.020000 -2.700000 20.00000 0.000000 -15.20000 0.001000
GW 427  25   20.00000 0.000000 -0.350000 18.22000 1.760000 -2.700000 0.001000
GW 428  50   18.22000 1.760000 -2.700000 20.00000 0.000000 -15.20000 0.001000
GW 429  25   20.00000 0.000000 -0.350000 19.66000 2.830000 -2.700000 0.001000
GW 430  50   19.66000 2.830000 -2.700000 20.00000 0.000000 -15.20000 0.001000
GW 431  25   20.00000 0.000000 -0.350000 21.76000 1.780000 -2.700000 0.001000
GW 432  50   21.76000 1.780000 -2.700000 20.00000 0.000000 -15.20000 0.001000
GW 500  25   0.000000 0.000000 0.350000 2.500000 0.010000 2.700000 0.001000
GW 501  50   2.500000 0.010000 2.700000 0.000000 0.000000 15.20000 0.001000
GW 502  25   0.000000 0.000000 0.350000 1.780000 -1.760000 2.700000 0.001000
GW 503  50   1.780000 -1.760000 2.700000 0.000000 0.000000 15.20000 0.001000
GW 504  25   0.000000 0.000000 0.350000 -0.310000 -2.830000 2.700000 0.001000
GW 505  50   -0.310000 -2.830000 2.700000 0.000000 0.000000 15.20000 0.001000
GW 506  25   0.000000 0.000000 0.350000 -1.760000 -1.780000 2.700000 0.001000
GW 507  50   -1.760000 -1.780000 2.700000 0.000000 0.000000 15.20000 0.001000
GW 508  25   0.000000 0.000000 0.350000 -3.160000 -0.020000 2.700000 0.001000
GW 509  50   -3.160000 -0.020000 2.700000 0.000000 0.000000 15.20000 0.001000
GW 510  25   0.000000 0.000000 0.350000 -1.780000 1.760000 2.700000 0.001000
GW 511  50   -1.780000 1.760000 2.700000 0.000000 0.000000 15.20000 0.001000
GW 512  25   0.000000 0.000000 0.350000 -0.340000 2.830000 2.700000 0.001000
GW 513  50   -0.340000 2.830000 2.700000 0.000000 0.000000 15.20000 0.001000
GW 514  25   0.000000 0.000000 0.350000 1.760000 1.780000 2.700000 0.001000
GW 515  50   1.760000 1.780000 2.700000 0.000000 0.000000 15.20000 0.001000
GW 516  3    0.000000 0.000000 -0.350000 0.000000 0.000000 0.350000 0.001000
GW 517  25   0.000000 0.000000 -0.350000 2.500000 0.010000 -2.700000 0.001000
GW 518  50   2.500000 0.010000 -2.700000 0.000000 0.000000 -15.20000 0.001000
GW 519  25   0.000000 0.000000 -0.350000 1.780000 -1.760000 -2.700000 0.001000
GW 520  50   1.780000 -1.760000 -2.700000 0.000000 0.000000 -15.20000 0.001000
GW 521  25   0.000000 0.000000 -0.350000 -0.310000 -2.830000 -2.700000 0.001000
GW 522  50   -0.310000 -2.830000 -2.700000 0.000000 0.000000 -15.20000 0.001000
GW 523  25   0.000000 0.000000 -0.350000 -1.760000 -1.780000 -2.700000 0.001000
GW 524  50   -1.760000 -1.780000 -2.700000 0.000000 0.000000 -15.20000 0.001000
GW 525  25   0.000000 0.000000 -0.350000 -3.160000 -0.020000 -2.700000 0.001000
GW 526  50   -3.160000 -0.020000 -2.700000 0.000000 0.000000 -15.20000 0.001000
GW 527  25   0.000000 0.000000 -0.350000 -1.780000 1.760000 -2.700000 0.001000
GW 528  50   -1.780000 1.760000 -2.700000 0.000000 0.000000 -15.20000 0.001000
GW 529  25   0.000000 0.000000 -0.350000 -0.340000 2.830000 -2.700000 0.001000
GW 530  50   -0.340000 2.830000 -2.700000 0.000000 0.000000 -15.20000 0.001000
GW 531  25   0.000000 0.000000 -0.350000 1.760000 1.780000 -2.700000 0.001000
GW 532  50   1.760000 1.780000 -2.700000 0.000000 0.000000 -15.20000 0.001000
GW 600  25   -20.00000 0.000000 0.350000 -22.50000 -0.010000 2.700000 0.001000
GW 601  50   -22.50000 -0.010000 2.700000 -20.00000 0.000000 15.20000 0.001000
GW 602  25   -20.00000 0.000000 0.350000 -21.78000 1.760000 2.700000 0.001000
GW 603  50   -21.78000 1.760000 2.700000 -20.00000 0.000000 15.20000 0.001000
GW 604  25   -20.00000 0.000000 0.350000 -19.69000 2.830000 2.700000 0.001000
GW 605  50   -19.69000 2.830000 2.700000 -20.00000 0.000000 15.20000 0.001000
GW 606  25   -20.00000 0.000000 0.350000 -18.24000 1.780000 2.700000 0.001000
GW 607  50   -18.24000 1.780000 2.700000 -20.00000 0.000000 15.20000 0.001000
GW 608  25   -20.00000 0.000000 0.350000 -16.84000 0.020000 2.700000 0.001000
GW 609  50   -16.84000 0.020000 2.700000 -20.00000 0.000000 15.20000 0.001000
GW 610  25   -20.00000 0.000000 0.350000 -18.22000 -1.760000 2.700000 0.001000
GW 611  50   -18.22000 -1.760000 2.700000 -20.00000 0.000000 15.20000 0.001000
GW 612  25   -20.00000 0.000000 0.350000 -19.66000 -2.830000 2.700000 0.001000
GW 613  50   -19.66000 -2.830000 2.700000 -20.00000 0.000000 15.20000 0.001000
GW 614  25   -20.00000 0.000000 0.350000 -21.76000 -1.780000 2.700000 0.001000
GW 615  50   -21.76000 -1.780000 2.700000 -20.00000 0.000000 15.20000 0.001000
GW 616  3    -20.00000 0.000000 -0.350000 -20.00000 0.000000 0.350000 0.001000
GW 617  25   -20.00000 0.000000 -0.350000 -22.50000 -0.010000 -2.700000 0.001000
GW 618  50   -22.50000 -0.010000 -2.700000 -20.00000 0.000000 -15.20000 0.001000
GW 619  25   -20.00000 0.000000 -0.350000 -21.78000 1.760000 -2.700000 0.001000
GW 620  50   -21.78000 1.760000 -2.700000 -20.00000 0.000000 -15.20000 0.001000
GW 621  25   -20.00000 0.000000 -0.350000 -19.69000 2.830000 -2.700000 0.001000
GW 622  50   -19.69000 2.830000 -2.700000 -20.00000 0.000000 -15.20000 0.001000
GW 623  25   -20.00000 0.000000 -0.350000 -18.24000 1.780000 -2.700000 0.001000
GW 624  50   -18.24000 1.780000 -2.700000 -20.00000 0.000000 -15.20000 0.001000
GW 625  25   -20.00000 0.000000 -0.350000 -16.84000 0.020000 -2.700000 0.001000
GW 626  50   -16.84000 0.020000 -2.700000 -20.00000 0.000000 -15.20000 0.001000
GW 627  25   -20.00000 0.000000 -0.350000 -18.22000 -1.760000 -2.700000 0.001000
GW 628  50   -18.22000 -1.760000 -2.700000 -20.00000 0.000000 -15.20000 0.001000
GW 629  25   -20.00000 0.000000 -0.350000 -19.66000 -2.830000 -2.700000 0.001000
GW 630  50   -19.66000 -2.830000 -2.700000 -20.00000 0.000000 -15.20000 0.001000
GW 631  25   -20.00000 0.000000 -0.350000 -21.76000 -1.780000 -2.700000 0.001000
GW 632  50   -21.76000 -1.780000 -2.700000 -20.00000 0.000000 -15.20000 0.001000
GW 700  25   20.00000 -20.00000 0.350000 21.78000 -21.76000 2.700000 0.001000
GW 701  50   21.78000 -21.76000 2.700000 20.00000 -20.00000 15.20000 0.001000
GW 702  25   20.00000 -20.00000 0.350000 20.01000 -22.50000 2.700000 0.001000
GW 703  50   20.01000 -22.50000 2.700000 20.00000 -20.00000 15.20000 0.001000
GW 704  25   20.00000 -20.00000 0.350000 17.78000 -21.78000 2.700000 0.001000
GW 705  50   17.78000 -21.78000 2.700000 20.00000 -20.00000 15.20000 0.001000
GW 706  25   20.00000 -20.00000 0.350000 17.50000 -20.01000 2.700000 0.001000
GW 707  50   17.50000 -20.01000 2.700000 20.00000 -20.00000 15.20000 0.001000
GW 708  25   20.00000 -20.00000 0.350000 17.76000 -17.78000 2.700000 0.001000
GW 709  50   17.76000 -17.78000 2.700000 20.00000 -20.00000 15.20000 0.001000
GW 710  25   20.00000 -20.00000 0.350000 19.99000 -17.50000 2.700000 0.001000
GW 711  50   19.99000 -17.50000 2.700000 20.00000 -20.00000 15.20000 0.001000
GW 712  25   20.00000 -20.00000 0.350000 21.76000 -17.76000 2.700000 0.001000
GW 713  50   21.76000 -17.76000 2.700000 20.00000 -20.00000 15.20000 0.001000
GW 714  25   20.00000 -20.00000 0.350000 22.50000 -19.99000 2.700000 0.001000
GW 715  50   22.50000 -19.99000 2.700000 20.00000 -20.00000 15.20000 0.001000
GW 716  3    20.00000 -20.00000 -0.350000 20.00000 -20.00000 0.350000 0.001000
GW 717  25   20.00000 -20.00000 -0.350000 21.78000 -21.76000 -2.700000 0.001000
GW 718  50   21.78000 -21.76000 -2.700000 20.00000 -20.00000 -15.20000 0.001000
GW 719  25   20.00000 -20.00000 -0.350000 20.01000 -22.50000 -2.700000 0.001000
GW 720  50   20.01000 -22.50000 -2.700000 20.00000 -20.00000 -15.20000 0.001000
GW 721  25   20.00000 -20.00000 -0.350000 17.78000 -21.78000 -2.700000 0.001000
GW 722  50   17.78000 -21.78000 -2.700000 20.00000 -20.00000 -15.20000 0.001000
GW 723  25   20.00000 -20.00000 -0.350000 17.50000 -20.01000 -2.700000 0.001000
GW 724  50   17.50000 -20.01000 -2.700000 20.00000 -20.00000 -15.20000 0.001000
GW 725  25   20.00000 -20.00000 -0.350000 17.76000 -17.78000 -2.700000 0.001000
GW 726  50   17.76000 -17.78000 -2.700000 20.00000 -20.00000 -15.20000 0.001000
GW 727  25   20.00000 -20.00000 -0.350000 19.99000 -17.50000 -2.700000 0.001000
GW 728  50   19.99000 -17.50000 -2.700000 20.00000 -20.00000 -15.20000 0.001000
GW 729  25   20.00000 -20.00000 -0.350000 21.76000 -17.76000 -2.700000 0.001000
GW 730  50   21.76000 -17.76000 -2.700000 20.00000 -20.00000 -15.20000 0.001000
GW 731  25   20.00000 -20.00000 -0.350000 22.50000 -19.99000 -2.700000 0.001000
GW 732  50   22.50000 -19.99000 -2.700000 20.00000 -20.00000 -15.20000 0.001000
GW 800  25   0.000000 -20.00000 0.350000 0.010000 -22.50000 2.700000 0.001000
GW 801  50   0.010000 -22.50000 2.700000 0.000000 -20.00000 15.20000 0.001000
GW 802  25   0.000000 -20.00000 0.350000 -1.760000 -21.78000 2.700000 0.001000
GW 803  50   -1.760000 -21.78000 2.700000 0.000000 -20.00000 15.20000 0.001000
GW 804  25   0.000000 -20.00000 0.350000 -2.830000 -19.69000 2.700000 0.001000
GW 805  50   -2.830000 -19.69000 2.700000 0.000000 -20.00000 15.20000 0.001000
GW 806  25   0.000000 -20.00000 0.350000 -1.780000 -18.24000 2.700000 0.001000
GW 807  50   -1.780000 -18.24000 2.700000 0.000000 -20.00000 15.20000 0.001000
GW 808  25   0.000000 -20.00000 0.350000 -0.020000 -16.84000 2.700000 0.001000
GW 809  50   -0.020000 -16.84000 2.700000 0.000000 -20.00000 15.20000 0.001000
GW 810  25   0.000000 -20.00000 0.350000 1.760000 -18.22000 2.700000 0.001000
GW 811  50   1.760000 -18.22000 2.700000 0.000000 -20.00000 15.20000 0.001000
GW 812  25   0.000000 -20.00000 0.350000 2.830000 -19.66000 2.700000 0.001000
GW 813  50   2.830000 -19.66000 2.700000 0.000000 -20.00000 15.20000 0.001000
GW 814  25   0.000000 -20.00000 0.350000 1.780000 -21.76000 2.700000 0.001000
GW 815  50   1.780000 -21.76000 2.700000 0.000000 -20.00000 15.20000 0.001000
GW 816  3    0.000000 -20.00000 -0.350000 0.000000 -20.00000 0.350000 0.001000
GW 817  25   0.000000 -20.00000 -0.350000 0.010000 -22.50000 -2.700000 0.001000
GW 818  50   0.010000 -22.50000 -2.700000 0.000000 -20.00000 -15.20000 0.001000
GW 819  25   0.000000 -20.00000 -0.350000 -1.760000 -21.78000 -2.700000 0.001000
GW 820  50   -1.760000 -21.78000 -2.700000 0.000000 -20.00000 -15.20000 0.001000
GW 821  25   0.000000 -20.00000 -0.350000 -2.830000 -19.69000 -2.700000 0.001000
GW 822  50   -2.830000 -19.69000 -2.700000 0.000000 -20.00000 -15.20000 0.001000
GW 823  25   0.000000 -20.00000 -0.350000 -1.780000 -18.24000 -2.700000 0.001000
GW 824  50   -1.780000 -18.24000 -2.700000 0.000000 -20.00000 -15.20000 0.001000
GW 825  25   0.000000 -20.00000 -0.350000 -0.020000 -16.84000 -2.700000 0.001000
GW 826  50   -0.020000 -16.84000 -2.700000 0.000000 -20.00000 -15.20000 0.001000
GW 827  25   0.000000 -20.00000 -0.350000 1.760000 -18.22000 -2.700000 0.001000
GW 828  50   1.760000 -18.22000 -2.700000 0.000000 -20.00000 -15.20000 0.001000
GW 829  25   0.000000 -20.00000 -0.350000 2.830000 -19.66000 -2.700000 0.001000
GW 830  50   2.830000 -19.66000 -2.700000 0.000000 -20.00000 -15.20000 0.001000
GW 831  25   0.000000 -20.00000 -0.350000 1.780000 -21.76000 -2.700000 0.001000
GW 832  50   1.780000 -21.76000 -2.700000 0.000000 -20.00000 -15.20000 0.001000
GW 900  25   -20.00000 -20.00000 0.350000 -21.76000 -21.78000 2.700000 0.001000
GW 901  50   -21.76000 -21.78000 2.700000 -20.00000 -20.00000 15.20000 0.001000
GW 902  25   -20.00000 -20.00000 0.350000 -22.50000 -20.01000 2.700000 0.001000
GW 903  50   -22.50000 -20.01000 2.700000 -20.00000 -20.00000 15.20000 0.001000
GW 904  25   -20.00000 -20.00000 0.350000 -21.78000 -17.78000 2.700000 0.001000
GW 905  50   -21.78000 -17.78000 2.700000 -20.00000 -20.00000 15.20000 0.001000
GW 906  25   -20.00000 -20.00000 0.350000 -20.01000 -17.50000 2.700000 0.001000
GW 907  50   -20.01000 -17.50000 2.700000 -20.00000 -20.00000 15.20000 0.001000
GW 908  25   -20.00000 -20.00000 0.350000 -17.78000 -17.76000 2.700000 0.001000
GW 909  50   -17.78000 -17.76000 2.700000 -20.00000 -20.00000 15.20000 0.001000
GW 910  25   -20.00000 -20.00000 0.350000 -17.50000 -19.99000 2.700000 0.001000
GW 911  50   -17.50000 -19.99000 2.700000 -20.00000 -20.00000 15.20000 0.001000
GW 912  25   -20.00000 -20.00000 0.350000 -17.76000 -21.76000 2.700000 0.001000
GW 913  50   -17.76000 -21.76000 2.700000 -20.00000 -20.00000 15.20000 0.001000
GW 914  25   -20.00000 -20.00000 0.350000 -19.99000 -22.50000 2.700000 0.001000
GW 915  50   -19.99000 -22.50000 2.700000 -20.00000 -20.00000 15.20000 0.001000
GW 916  3    -20.00000 -20.00000 -0.350000 -20.00000 -20.00000 0.350000 0.001000
GW 917  25   -20.00000 -20.00000 -0.350000 -21.76000 -21.78000 -2.700000 0.001000
GW 918  50   -21.76000 -21.78000 -2.700000 -20.00000 -20.00000 -15.20000 0.001000
GW 919  25   -20.00000 -20.00000 -0.350000 -22.50000 -20.01000 -2.700000 0.001000
GW 920  50   -22.50000 -20.01000 -2.700000 -20.00000 -20.00000 -15.20000 0.001000
GW 921  25   -20.00000 -20.00000 -0.350000 -21.78000 -17.78000 -2.700000 0.001000
GW 922  50   -21.78000 -17.78000 -2.700000 -20.00000 -20.00000 -15.20000 0.001000
GW 923  25   -20.00000 -20.00000 -0.350000 -20.01000 -17.50000 -2.700000 0.001000
GW 924  50   -20.01000 -17.50000 -2.700000 -20.00000 -20.00000 -15.20000 0.001000
GW 925  25   -20.00000 -20.00000 -0.350000 -17.78000 -17.76000 -2.700000 0.001000
GW 926  50   -17.78000 -17.76000 -2.700000 -20.00000 -20.00000 -15.20000 0.001000
GW 927  25   -20.00000 -20.00000 -0.350000 -17.50000 -19.99000 -2.700000 0.001000
GW 928  50   -17.50000 -19.99000 -2.700000 -20.00000 -20.00000 -15.20000 0.001000
GW 929  25   -20.00000 -20.00000 -0.350000 -17.76000 -21.76000 -2.700000 0.001000
GW 930  50   -17.76000 -21.76000 -2.700000 -20.00000 -20.00000 -15.20000 0.001000
GW 931  25   -20.00000 -20.00000 -0.350000 -19.99000 -22.50000 -2.700000 0.001000
GW 932  50   -19.99000 -22.50000 -2.700000 -20.00000 -20.00000 -15.20000 0.001000
GE 0 
GN -1 
FR  0  0  0  0   5.0 
EX  0 116  2  0   -1.609E+001    3.877E+000 
EX  0 216  2  0   -2.5900E-001   -1.2571E+001 
EX  0 316  2  0    6.893E+000    3.728E+000 
EX  0 416  2  0   -2.1700E-001   -1.2545E+001 
EX  0 516  2  0   1.2645E+001   1.7282E+001 
EX  0 616  2  0   -1.2081E+001   -4.112E+000 
EX  0 716  2  0    6.712E+000    3.427E+000 
EX  0 816  2  0   -1.1229E+001   -3.583E+000 
EX  0 916  2  0   -3.1043E+003   -3.8263E+002 
PT -1
RP  0  19  72  1010 0.0 0.0 5.0 5.0
EN
