CM
CE
GW 100  20   20.03000 15.00000 -5.000000 20.03000 15.00000 5.000000 0.001000
GW 200  20   3.550000 16.48000 -5.000000 3.550000 16.48000 5.000000 0.001000
GW 300  20   -15.00000 20.03000 -5.000000 -15.00000 20.03000 5.000000 0.001000
GW 400  20   16.48000 -3.550000 -5.000000 16.48000 -3.550000 5.000000 0.001000
GW 500  20   -3.520000 -3.550000 -5.000000 -3.520000 -3.550000 5.000000 0.001000
GW 600  20   -16.48000 3.550000 -5.000000 -16.48000 3.550000 5.000000 0.001000
GW 700  20   15.00000 -20.03000 -5.000000 15.00000 -20.03000 5.000000 0.001000
GW 800  20   -3.550000 -16.48000 -5.000000 -3.550000 -16.48000 5.000000 0.001000
GW 900  20   -20.03000 -15.00000 -5.000000 -20.03000 -15.00000 5.000000 0.001000
GE 0 
GN -1 0  0  0  10.0  0.01 
FR  0  0  0  0   5.0 
EX  0 100  10 0    1.0000E+000    0.0000E+000 
EX  0 200  10 0    1.0000E+000    0.0000E+000 
EX  0 300  10 0    1.0000E+000    0.0000E+000 
EX  0 400  10 0    1.0000E+000    0.0000E+000 
EX  0 500  10 0    1.0000E+000    0.0000E+000 
EX  0 600  10 0    1.0000E+000    0.0000E+000 
EX  0 700  10 0    1.0000E+000    0.0000E+000 
EX  0 800  10 0    1.0000E+000    0.0000E+000 
EX  0 900  10 0    1.0000E+000    0.0000E+000 
PT -1
RP  0  19  72  1010 0.0 0.0 5.0 5.0
EN
