CM
CE
GW 100  20 7.500000 7.500000 -15.00000 7.500000 7.500000 15.00000 0.001000
GW 200  20 -7.500000 7.500000 -15.00000 -7.500000 7.500000 15.00000 0.001000
GW 300  20 7.500000 -7.500000 -15.00000 7.500000 -7.500000 15.00000 0.001000
GW 400  20 -7.500000 -7.500000 -15.00000 -7.500000 -7.500000 15.00000 0.001000
GE 0 
GN -1 
FR  0  0  0  0   5.0 
EX  0 100  10 0   1.7499E+001   9.2644E+000 
EX  0 200  10 0   -8.8288E+000   3.2191E+000 
EX  0 300  10 0   -8.8908E+000   3.1812E+000 
EX  0 400  10 0   6.4806E+000   -7.5407E+000 
PT -1
RP  0  19  72  1010 0.0 0.0 5.0 5.0
EN
