CM
CE
GW 101  25 -20.00000 -20.00000 0.350000 -21.76000 -21.78000 2.700000 0.001000
GW 102  50 -21.76000 -21.78000 2.700000 -20.00000 -20.00000 15.20000 0.001000
GW 103  25 -20.00000 -20.00000 0.350000 -22.50000 -20.01000 2.700000 0.001000
GW 104  50 -22.50000 -20.01000 2.700000 -20.00000 -20.00000 15.20000 0.001000
GW 105  25 -20.00000 -20.00000 0.350000 -21.78000 -17.78000 2.700000 0.001000
GW 106  50 -21.78000 -17.78000 2.700000 -20.00000 -20.00000 15.20000 0.001000
GW 107  25 -20.00000 -20.00000 0.350000 -20.01000 -17.50000 2.700000 0.001000
GW 108  50 -20.01000 -17.50000 2.700000 -20.00000 -20.00000 15.20000 0.001000
GW 109  25 -20.00000 -20.00000 0.350000 -17.78000 -17.76000 2.700000 0.001000
GW 110  50 -17.78000 -17.76000 2.700000 -20.00000 -20.00000 15.20000 0.001000
GW 111  25 -20.00000 -20.00000 0.350000 -17.50000 -19.99000 2.700000 0.001000
GW 112  50 -17.50000 -19.99000 2.700000 -20.00000 -20.00000 15.20000 0.001000
GW 113  25 -20.00000 -20.00000 0.350000 -17.76000 -21.76000 2.700000 0.001000
GW 114  50 -17.76000 -21.76000 2.700000 -20.00000 -20.00000 15.20000 0.001000
GW 115  25 -20.00000 -20.00000 0.350000 -19.99000 -22.50000 2.700000 0.001000
GW 116  50 -19.99000 -22.50000 2.700000 -20.00000 -20.00000 15.20000 0.001000
GW 117  3  -20.00000 -20.00000 -0.350000 -20.00000 -20.00000 0.350000 0.001000
GW 118  25 -20.00000 -20.00000 -0.350000 -21.76000 -21.78000 -2.700000 0.001000
GW 119  50 -21.76000 -21.78000 -2.700000 -20.00000 -20.00000 -15.20000 0.001000
GW 120  25 -20.00000 -20.00000 -0.350000 -22.50000 -20.01000 -2.700000 0.001000
GW 121  50 -22.50000 -20.01000 -2.700000 -20.00000 -20.00000 -15.20000 0.001000
GW 122  25 -20.00000 -20.00000 -0.350000 -21.78000 -17.78000 -2.700000 0.001000
GW 123  50 -21.78000 -17.78000 -2.700000 -20.00000 -20.00000 -15.20000 0.001000
GW 124  25 -20.00000 -20.00000 -0.350000 -20.01000 -17.50000 -2.700000 0.001000
GW 125  50 -20.01000 -17.50000 -2.700000 -20.00000 -20.00000 -15.20000 0.001000
GW 126  25 -20.00000 -20.00000 -0.350000 -17.78000 -17.76000 -2.700000 0.001000
GW 127  50 -17.78000 -17.76000 -2.700000 -20.00000 -20.00000 -15.20000 0.001000
GW 128  25 -20.00000 -20.00000 -0.350000 -17.50000 -19.99000 -2.700000 0.001000
GW 129  50 -17.50000 -19.99000 -2.700000 -20.00000 -20.00000 -15.20000 0.001000
GW 130  25 -20.00000 -20.00000 -0.350000 -17.76000 -21.76000 -2.700000 0.001000
GW 131  50 -17.76000 -21.76000 -2.700000 -20.00000 -20.00000 -15.20000 0.001000
GW 132  25 -20.00000 -20.00000 -0.350000 -19.99000 -22.50000 -2.700000 0.001000
GW 133  50 -19.99000 -22.50000 -2.700000 -20.00000 -20.00000 -15.20000 0.001000
GW 134  25 0.000000 -20.00000 0.350000 0.010000 -22.50000 2.700000 0.001000
GW 135  50 0.010000 -22.50000 2.700000 0.000000 -20.00000 15.20000 0.001000
GW 136  25 0.000000 -20.00000 0.350000 -1.760000 -21.78000 2.700000 0.001000
GW 137  50 -1.760000 -21.78000 2.700000 0.000000 -20.00000 15.20000 0.001000
GW 138  25 0.000000 -20.00000 0.350000 -2.830000 -19.69000 2.700000 0.001000
GW 139  50 -2.830000 -19.69000 2.700000 0.000000 -20.00000 15.20000 0.001000
GW 140  25 0.000000 -20.00000 0.350000 -1.780000 -18.24000 2.700000 0.001000
GW 141  50 -1.780000 -18.24000 2.700000 0.000000 -20.00000 15.20000 0.001000
GW 142  25 0.000000 -20.00000 0.350000 -0.020000 -16.84000 2.700000 0.001000
GW 143  50 -0.020000 -16.84000 2.700000 0.000000 -20.00000 15.20000 0.001000
GW 144  25 0.000000 -20.00000 0.350000 1.760000 -18.22000 2.700000 0.001000
GW 145  50 1.760000 -18.22000 2.700000 0.000000 -20.00000 15.20000 0.001000
GW 146  25 0.000000 -20.00000 0.350000 2.830000 -19.66000 2.700000 0.001000
GW 147  50 2.830000 -19.66000 2.700000 0.000000 -20.00000 15.20000 0.001000
GW 148  25 0.000000 -20.00000 0.350000 1.780000 -21.76000 2.700000 0.001000
GW 149  50 1.780000 -21.76000 2.700000 0.000000 -20.00000 15.20000 0.001000
GW 150  3  0.000000 -20.00000 -0.350000 0.000000 -20.00000 0.350000 0.001000
GW 151  25 0.000000 -20.00000 -0.350000 0.010000 -22.50000 -2.700000 0.001000
GW 152  50 0.010000 -22.50000 -2.700000 0.000000 -20.00000 -15.20000 0.001000
GW 153  25 0.000000 -20.00000 -0.350000 -1.760000 -21.78000 -2.700000 0.001000
GW 154  50 -1.760000 -21.78000 -2.700000 0.000000 -20.00000 -15.20000 0.001000
GW 155  25 0.000000 -20.00000 -0.350000 -2.830000 -19.69000 -2.700000 0.001000
GW 156  50 -2.830000 -19.69000 -2.700000 0.000000 -20.00000 -15.20000 0.001000
GW 157  25 0.000000 -20.00000 -0.350000 -1.780000 -18.24000 -2.700000 0.001000
GW 158  50 -1.780000 -18.24000 -2.700000 0.000000 -20.00000 -15.20000 0.001000
GW 159  25 0.000000 -20.00000 -0.350000 -0.020000 -16.84000 -2.700000 0.001000
GW 160  50 -0.020000 -16.84000 -2.700000 0.000000 -20.00000 -15.20000 0.001000
GW 161  25 0.000000 -20.00000 -0.350000 1.760000 -18.22000 -2.700000 0.001000
GW 162  50 1.760000 -18.22000 -2.700000 0.000000 -20.00000 -15.20000 0.001000
GW 163  25 0.000000 -20.00000 -0.350000 2.830000 -19.66000 -2.700000 0.001000
GW 164  50 2.830000 -19.66000 -2.700000 0.000000 -20.00000 -15.20000 0.001000
GW 165  25 0.000000 -20.00000 -0.350000 1.780000 -21.76000 -2.700000 0.001000
GW 166  50 1.780000 -21.76000 -2.700000 0.000000 -20.00000 -15.20000 0.001000
GW 167  25 20.00000 -20.00000 0.350000 21.78000 -21.76000 2.700000 0.001000
GW 168  50 21.78000 -21.76000 2.700000 20.00000 -20.00000 15.20000 0.001000
GW 169  25 20.00000 -20.00000 0.350000 20.01000 -22.50000 2.700000 0.001000
GW 170  50 20.01000 -22.50000 2.700000 20.00000 -20.00000 15.20000 0.001000
GW 171  25 20.00000 -20.00000 0.350000 17.78000 -21.78000 2.700000 0.001000
GW 172  50 17.78000 -21.78000 2.700000 20.00000 -20.00000 15.20000 0.001000
GW 173  25 20.00000 -20.00000 0.350000 17.50000 -20.01000 2.700000 0.001000
GW 174  50 17.50000 -20.01000 2.700000 20.00000 -20.00000 15.20000 0.001000
GW 175  25 20.00000 -20.00000 0.350000 17.76000 -17.78000 2.700000 0.001000
GW 176  50 17.76000 -17.78000 2.700000 20.00000 -20.00000 15.20000 0.001000
GW 177  25 20.00000 -20.00000 0.350000 19.99000 -17.50000 2.700000 0.001000
GW 178  50 19.99000 -17.50000 2.700000 20.00000 -20.00000 15.20000 0.001000
GW 179  25 20.00000 -20.00000 0.350000 21.76000 -17.76000 2.700000 0.001000
GW 180  50 21.76000 -17.76000 2.700000 20.00000 -20.00000 15.20000 0.001000
GW 181  25 20.00000 -20.00000 0.350000 22.50000 -19.99000 2.700000 0.001000
GW 182  50 22.50000 -19.99000 2.700000 20.00000 -20.00000 15.20000 0.001000
GW 183  3  20.00000 -20.00000 -0.350000 20.00000 -20.00000 0.350000 0.001000
GW 184  25 20.00000 -20.00000 -0.350000 21.78000 -21.76000 -2.700000 0.001000
GW 185  50 21.78000 -21.76000 -2.700000 20.00000 -20.00000 -15.20000 0.001000
GW 186  25 20.00000 -20.00000 -0.350000 20.01000 -22.50000 -2.700000 0.001000
GW 187  50 20.01000 -22.50000 -2.700000 20.00000 -20.00000 -15.20000 0.001000
GW 188  25 20.00000 -20.00000 -0.350000 17.78000 -21.78000 -2.700000 0.001000
GW 189  50 17.78000 -21.78000 -2.700000 20.00000 -20.00000 -15.20000 0.001000
GW 190  25 20.00000 -20.00000 -0.350000 17.50000 -20.01000 -2.700000 0.001000
GW 191  50 17.50000 -20.01000 -2.700000 20.00000 -20.00000 -15.20000 0.001000
GW 192  25 20.00000 -20.00000 -0.350000 17.76000 -17.78000 -2.700000 0.001000
GW 193  50 17.76000 -17.78000 -2.700000 20.00000 -20.00000 -15.20000 0.001000
GW 194  25 20.00000 -20.00000 -0.350000 19.99000 -17.50000 -2.700000 0.001000
GW 195  50 19.99000 -17.50000 -2.700000 20.00000 -20.00000 -15.20000 0.001000
GW 196  25 20.00000 -20.00000 -0.350000 21.76000 -17.76000 -2.700000 0.001000
GW 197  50 21.76000 -17.76000 -2.700000 20.00000 -20.00000 -15.20000 0.001000
GW 198  25 20.00000 -20.00000 -0.350000 22.50000 -19.99000 -2.700000 0.001000
GW 199  50 22.50000 -19.99000 -2.700000 20.00000 -20.00000 -15.20000 0.001000
GW 200  25 -20.00000 0.000000 0.350000 -22.50000 -0.010000 2.700000 0.001000
GW 201  50 -22.50000 -0.010000 2.700000 -20.00000 0.000000 15.20000 0.001000
GW 202  25 -20.00000 0.000000 0.350000 -21.78000 1.760000 2.700000 0.001000
GW 203  50 -21.78000 1.760000 2.700000 -20.00000 0.000000 15.20000 0.001000
GW 204  25 -20.00000 0.000000 0.350000 -19.69000 2.830000 2.700000 0.001000
GW 205  50 -19.69000 2.830000 2.700000 -20.00000 0.000000 15.20000 0.001000
GW 206  25 -20.00000 0.000000 0.350000 -18.24000 1.780000 2.700000 0.001000
GW 207  50 -18.24000 1.780000 2.700000 -20.00000 0.000000 15.20000 0.001000
GW 208  25 -20.00000 0.000000 0.350000 -16.84000 0.020000 2.700000 0.001000
GW 209  50 -16.84000 0.020000 2.700000 -20.00000 0.000000 15.20000 0.001000
GW 210  25 -20.00000 0.000000 0.350000 -18.22000 -1.760000 2.700000 0.001000
GW 211  50 -18.22000 -1.760000 2.700000 -20.00000 0.000000 15.20000 0.001000
GW 212  25 -20.00000 0.000000 0.350000 -19.66000 -2.830000 2.700000 0.001000
GW 213  50 -19.66000 -2.830000 2.700000 -20.00000 0.000000 15.20000 0.001000
GW 214  25 -20.00000 0.000000 0.350000 -21.76000 -1.780000 2.700000 0.001000
GW 215  50 -21.76000 -1.780000 2.700000 -20.00000 0.000000 15.20000 0.001000
GW 216  3  -20.00000 0.000000 -0.350000 -20.00000 0.000000 0.350000 0.001000
GW 217  25 -20.00000 0.000000 -0.350000 -22.50000 -0.010000 -2.700000 0.001000
GW 218  50 -22.50000 -0.010000 -2.700000 -20.00000 0.000000 -15.20000 0.001000
GW 219  25 -20.00000 0.000000 -0.350000 -21.78000 1.760000 -2.700000 0.001000
GW 220  50 -21.78000 1.760000 -2.700000 -20.00000 0.000000 -15.20000 0.001000
GW 221  25 -20.00000 0.000000 -0.350000 -19.69000 2.830000 -2.700000 0.001000
GW 222  50 -19.69000 2.830000 -2.700000 -20.00000 0.000000 -15.20000 0.001000
GW 223  25 -20.00000 0.000000 -0.350000 -18.24000 1.780000 -2.700000 0.001000
GW 224  50 -18.24000 1.780000 -2.700000 -20.00000 0.000000 -15.20000 0.001000
GW 225  25 -20.00000 0.000000 -0.350000 -16.84000 0.020000 -2.700000 0.001000
GW 226  50 -16.84000 0.020000 -2.700000 -20.00000 0.000000 -15.20000 0.001000
GW 227  25 -20.00000 0.000000 -0.350000 -18.22000 -1.760000 -2.700000 0.001000
GW 228  50 -18.22000 -1.760000 -2.700000 -20.00000 0.000000 -15.20000 0.001000
GW 229  25 -20.00000 0.000000 -0.350000 -19.66000 -2.830000 -2.700000 0.001000
GW 230  50 -19.66000 -2.830000 -2.700000 -20.00000 0.000000 -15.20000 0.001000
GW 231  25 -20.00000 0.000000 -0.350000 -21.76000 -1.780000 -2.700000 0.001000
GW 232  50 -21.76000 -1.780000 -2.700000 -20.00000 0.000000 -15.20000 0.001000
GW 233  25 0.000000 0.000000 0.350000 2.500000 0.010000 2.700000 0.001000
GW 234  50 2.500000 0.010000 2.700000 0.000000 0.000000 15.20000 0.001000
GW 235  25 0.000000 0.000000 0.350000 1.780000 -1.760000 2.700000 0.001000
GW 236  50 1.780000 -1.760000 2.700000 0.000000 0.000000 15.20000 0.001000
GW 237  25 0.000000 0.000000 0.350000 -0.310000 -2.830000 2.700000 0.001000
GW 238  50 -0.310000 -2.830000 2.700000 0.000000 0.000000 15.20000 0.001000
GW 239  25 0.000000 0.000000 0.350000 -1.760000 -1.780000 2.700000 0.001000
GW 240  50 -1.760000 -1.780000 2.700000 0.000000 0.000000 15.20000 0.001000
GW 241  25 0.000000 0.000000 0.350000 -3.160000 -0.020000 2.700000 0.001000
GW 242  50 -3.160000 -0.020000 2.700000 0.000000 0.000000 15.20000 0.001000
GW 243  25 0.000000 0.000000 0.350000 -1.780000 1.760000 2.700000 0.001000
GW 244  50 -1.780000 1.760000 2.700000 0.000000 0.000000 15.20000 0.001000
GW 245  25 0.000000 0.000000 0.350000 -0.340000 2.830000 2.700000 0.001000
GW 246  50 -0.340000 2.830000 2.700000 0.000000 0.000000 15.20000 0.001000
GW 247  25 0.000000 0.000000 0.350000 1.760000 1.780000 2.700000 0.001000
GW 248  50 1.760000 1.780000 2.700000 0.000000 0.000000 15.20000 0.001000
GW 249  3  0.000000 0.000000 -0.350000 0.000000 0.000000 0.350000 0.001000
GW 250  25 0.000000 0.000000 -0.350000 2.500000 0.010000 -2.700000 0.001000
GW 251  50 2.500000 0.010000 -2.700000 0.000000 0.000000 -15.20000 0.001000
GW 252  25 0.000000 0.000000 -0.350000 1.780000 -1.760000 -2.700000 0.001000
GW 253  50 1.780000 -1.760000 -2.700000 0.000000 0.000000 -15.20000 0.001000
GW 254  25 0.000000 0.000000 -0.350000 -0.310000 -2.830000 -2.700000 0.001000
GW 255  50 -0.310000 -2.830000 -2.700000 0.000000 0.000000 -15.20000 0.001000
GW 256  25 0.000000 0.000000 -0.350000 -1.760000 -1.780000 -2.700000 0.001000
GW 257  50 -1.760000 -1.780000 -2.700000 0.000000 0.000000 -15.20000 0.001000
GW 258  25 0.000000 0.000000 -0.350000 -3.160000 -0.020000 -2.700000 0.001000
GW 259  50 -3.160000 -0.020000 -2.700000 0.000000 0.000000 -15.20000 0.001000
GW 260  25 0.000000 0.000000 -0.350000 -1.780000 1.760000 -2.700000 0.001000
GW 261  50 -1.780000 1.760000 -2.700000 0.000000 0.000000 -15.20000 0.001000
GW 262  25 0.000000 0.000000 -0.350000 -0.340000 2.830000 -2.700000 0.001000
GW 263  50 -0.340000 2.830000 -2.700000 0.000000 0.000000 -15.20000 0.001000
GW 264  25 0.000000 0.000000 -0.350000 1.760000 1.780000 -2.700000 0.001000
GW 265  50 1.760000 1.780000 -2.700000 0.000000 0.000000 -15.20000 0.001000
GW 266  25 20.00000 0.000000 0.350000 22.50000 0.010000 2.700000 0.001000
GW 267  50 22.50000 0.010000 2.700000 20.00000 0.000000 15.20000 0.001000
GW 268  25 20.00000 0.000000 0.350000 21.78000 -1.760000 2.700000 0.001000
GW 269  50 21.78000 -1.760000 2.700000 20.00000 0.000000 15.20000 0.001000
GW 270  25 20.00000 0.000000 0.350000 19.69000 -2.830000 2.700000 0.001000
GW 271  50 19.69000 -2.830000 2.700000 20.00000 0.000000 15.20000 0.001000
GW 272  25 20.00000 0.000000 0.350000 18.24000 -1.780000 2.700000 0.001000
GW 273  50 18.24000 -1.780000 2.700000 20.00000 0.000000 15.20000 0.001000
GW 274  25 20.00000 0.000000 0.350000 16.84000 -0.020000 2.700000 0.001000
GW 275  50 16.84000 -0.020000 2.700000 20.00000 0.000000 15.20000 0.001000
GW 276  25 20.00000 0.000000 0.350000 18.22000 1.760000 2.700000 0.001000
GW 277  50 18.22000 1.760000 2.700000 20.00000 0.000000 15.20000 0.001000
GW 278  25 20.00000 0.000000 0.350000 19.66000 2.830000 2.700000 0.001000
GW 279  50 19.66000 2.830000 2.700000 20.00000 0.000000 15.20000 0.001000
GW 280  25 20.00000 0.000000 0.350000 21.76000 1.780000 2.700000 0.001000
GW 281  50 21.76000 1.780000 2.700000 20.00000 0.000000 15.20000 0.001000
GW 282  3  20.00000 0.000000 -0.350000 20.00000 0.000000 0.350000 0.001000
GW 283  25 20.00000 0.000000 -0.350000 22.50000 0.010000 -2.700000 0.001000
GW 284  50 22.50000 0.010000 -2.700000 20.00000 0.000000 -15.20000 0.001000
GW 285  25 20.00000 0.000000 -0.350000 21.78000 -1.760000 -2.700000 0.001000
GW 286  50 21.78000 -1.760000 -2.700000 20.00000 0.000000 -15.20000 0.001000
GW 287  25 20.00000 0.000000 -0.350000 19.69000 -2.830000 -2.700000 0.001000
GW 288  50 19.69000 -2.830000 -2.700000 20.00000 0.000000 -15.20000 0.001000
GW 289  25 20.00000 0.000000 -0.350000 18.24000 -1.780000 -2.700000 0.001000
GW 290  50 18.24000 -1.780000 -2.700000 20.00000 0.000000 -15.20000 0.001000
GW 291  25 20.00000 0.000000 -0.350000 16.84000 -0.020000 -2.700000 0.001000
GW 292  50 16.84000 -0.020000 -2.700000 20.00000 0.000000 -15.20000 0.001000
GW 293  25 20.00000 0.000000 -0.350000 18.22000 1.760000 -2.700000 0.001000
GW 294  50 18.22000 1.760000 -2.700000 20.00000 0.000000 -15.20000 0.001000
GW 295  25 20.00000 0.000000 -0.350000 19.66000 2.830000 -2.700000 0.001000
GW 296  50 19.66000 2.830000 -2.700000 20.00000 0.000000 -15.20000 0.001000
GW 297  25 20.00000 0.000000 -0.350000 21.76000 1.780000 -2.700000 0.001000
GW 298  50 21.76000 1.780000 -2.700000 20.00000 0.000000 -15.20000 0.001000
GW 299  25 -20.00000 20.00000 0.350000 -21.78000 21.76000 2.700000 0.001000
GW 300  50 -21.78000 21.76000 2.700000 -20.00000 20.00000 15.20000 0.001000
GW 301  25 -20.00000 20.00000 0.350000 -20.01000 22.50000 2.700000 0.001000
GW 302  50 -20.01000 22.50000 2.700000 -20.00000 20.00000 15.20000 0.001000
GW 303  25 -20.00000 20.00000 0.350000 -17.78000 21.78000 2.700000 0.001000
GW 304  50 -17.78000 21.78000 2.700000 -20.00000 20.00000 15.20000 0.001000
GW 305  25 -20.00000 20.00000 0.350000 -17.50000 20.01000 2.700000 0.001000
GW 306  50 -17.50000 20.01000 2.700000 -20.00000 20.00000 15.20000 0.001000
GW 307  25 -20.00000 20.00000 0.350000 -17.76000 17.78000 2.700000 0.001000
GW 308  50 -17.76000 17.78000 2.700000 -20.00000 20.00000 15.20000 0.001000
GW 309  25 -20.00000 20.00000 0.350000 -19.99000 17.50000 2.700000 0.001000
GW 310  50 -19.99000 17.50000 2.700000 -20.00000 20.00000 15.20000 0.001000
GW 311  25 -20.00000 20.00000 0.350000 -21.76000 17.76000 2.700000 0.001000
GW 312  50 -21.76000 17.76000 2.700000 -20.00000 20.00000 15.20000 0.001000
GW 313  25 -20.00000 20.00000 0.350000 -22.50000 19.99000 2.700000 0.001000
GW 314  50 -22.50000 19.99000 2.700000 -20.00000 20.00000 15.20000 0.001000
GW 315  3  -20.00000 20.00000 -0.350000 -20.00000 20.00000 0.350000 0.001000
GW 316  25 -20.00000 20.00000 -0.350000 -21.78000 21.76000 -2.700000 0.001000
GW 317  50 -21.78000 21.76000 -2.700000 -20.00000 20.00000 -15.20000 0.001000
GW 318  25 -20.00000 20.00000 -0.350000 -20.01000 22.50000 -2.700000 0.001000
GW 319  50 -20.01000 22.50000 -2.700000 -20.00000 20.00000 -15.20000 0.001000
GW 320  25 -20.00000 20.00000 -0.350000 -17.78000 21.78000 -2.700000 0.001000
GW 321  50 -17.78000 21.78000 -2.700000 -20.00000 20.00000 -15.20000 0.001000
GW 322  25 -20.00000 20.00000 -0.350000 -17.50000 20.01000 -2.700000 0.001000
GW 323  50 -17.50000 20.01000 -2.700000 -20.00000 20.00000 -15.20000 0.001000
GW 324  25 -20.00000 20.00000 -0.350000 -17.76000 17.78000 -2.700000 0.001000
GW 325  50 -17.76000 17.78000 -2.700000 -20.00000 20.00000 -15.20000 0.001000
GW 326  25 -20.00000 20.00000 -0.350000 -19.99000 17.50000 -2.700000 0.001000
GW 327  50 -19.99000 17.50000 -2.700000 -20.00000 20.00000 -15.20000 0.001000
GW 328  25 -20.00000 20.00000 -0.350000 -21.76000 17.76000 -2.700000 0.001000
GW 329  50 -21.76000 17.76000 -2.700000 -20.00000 20.00000 -15.20000 0.001000
GW 330  25 -20.00000 20.00000 -0.350000 -22.50000 19.99000 -2.700000 0.001000
GW 331  50 -22.50000 19.99000 -2.700000 -20.00000 20.00000 -15.20000 0.001000
GW 332  25 0.000000 20.00000 0.350000 -0.010000 22.50000 2.700000 0.001000
GW 333  50 -0.010000 22.50000 2.700000 0.000000 20.00000 15.20000 0.001000
GW 334  25 0.000000 20.00000 0.350000 1.760000 21.78000 2.700000 0.001000
GW 335  50 1.760000 21.78000 2.700000 0.000000 20.00000 15.20000 0.001000
GW 336  25 0.000000 20.00000 0.350000 2.830000 19.69000 2.700000 0.001000
GW 337  50 2.830000 19.69000 2.700000 0.000000 20.00000 15.20000 0.001000
GW 338  25 0.000000 20.00000 0.350000 1.780000 18.24000 2.700000 0.001000
GW 339  50 1.780000 18.24000 2.700000 0.000000 20.00000 15.20000 0.001000
GW 340  25 0.000000 20.00000 0.350000 0.020000 16.84000 2.700000 0.001000
GW 341  50 0.020000 16.84000 2.700000 0.000000 20.00000 15.20000 0.001000
GW 342  25 0.000000 20.00000 0.350000 -1.760000 18.22000 2.700000 0.001000
GW 343  50 -1.760000 18.22000 2.700000 0.000000 20.00000 15.20000 0.001000
GW 344  25 0.000000 20.00000 0.350000 -2.830000 19.66000 2.700000 0.001000
GW 345  50 -2.830000 19.66000 2.700000 0.000000 20.00000 15.20000 0.001000
GW 346  25 0.000000 20.00000 0.350000 -1.780000 21.76000 2.700000 0.001000
GW 347  50 -1.780000 21.76000 2.700000 0.000000 20.00000 15.20000 0.001000
GW 348  3  0.000000 20.00000 -0.350000 0.000000 20.00000 0.350000 0.001000
GW 349  25 0.000000 20.00000 -0.350000 -0.010000 22.50000 -2.700000 0.001000
GW 350  50 -0.010000 22.50000 -2.700000 0.000000 20.00000 -15.20000 0.001000
GW 351  25 0.000000 20.00000 -0.350000 1.760000 21.78000 -2.700000 0.001000
GW 352  50 1.760000 21.78000 -2.700000 0.000000 20.00000 -15.20000 0.001000
GW 353  25 0.000000 20.00000 -0.350000 2.830000 19.69000 -2.700000 0.001000
GW 354  50 2.830000 19.69000 -2.700000 0.000000 20.00000 -15.20000 0.001000
GW 355  25 0.000000 20.00000 -0.350000 1.780000 18.24000 -2.700000 0.001000
GW 356  50 1.780000 18.24000 -2.700000 0.000000 20.00000 -15.20000 0.001000
GW 357  25 0.000000 20.00000 -0.350000 0.020000 16.84000 -2.700000 0.001000
GW 358  50 0.020000 16.84000 -2.700000 0.000000 20.00000 -15.20000 0.001000
GW 359  25 0.000000 20.00000 -0.350000 -1.760000 18.22000 -2.700000 0.001000
GW 360  50 -1.760000 18.22000 -2.700000 0.000000 20.00000 -15.20000 0.001000
GW 361  25 0.000000 20.00000 -0.350000 -2.830000 19.66000 -2.700000 0.001000
GW 362  50 -2.830000 19.66000 -2.700000 0.000000 20.00000 -15.20000 0.001000
GW 363  25 0.000000 20.00000 -0.350000 -1.780000 21.76000 -2.700000 0.001000
GW 364  50 -1.780000 21.76000 -2.700000 0.000000 20.00000 -15.20000 0.001000
GW 365  25 20.00000 20.00000 0.350000 21.76000 21.78000 2.700000 0.001000
GW 366  50 21.76000 21.78000 2.700000 20.00000 20.00000 15.20000 0.001000
GW 367  25 20.00000 20.00000 0.350000 22.50000 20.01000 2.700000 0.001000
GW 368  50 22.50000 20.01000 2.700000 20.00000 20.00000 15.20000 0.001000
GW 369  25 20.00000 20.00000 0.350000 21.78000 17.78000 2.700000 0.001000
GW 370  50 21.78000 17.78000 2.700000 20.00000 20.00000 15.20000 0.001000
GW 371  25 20.00000 20.00000 0.350000 20.01000 17.50000 2.700000 0.001000
GW 372  50 20.01000 17.50000 2.700000 20.00000 20.00000 15.20000 0.001000
GW 373  25 20.00000 20.00000 0.350000 17.78000 17.76000 2.700000 0.001000
GW 374  50 17.78000 17.76000 2.700000 20.00000 20.00000 15.20000 0.001000
GW 375  25 20.00000 20.00000 0.350000 17.50000 19.99000 2.700000 0.001000
GW 376  50 17.50000 19.99000 2.700000 20.00000 20.00000 15.20000 0.001000
GW 377  25 20.00000 20.00000 0.350000 17.76000 21.76000 2.700000 0.001000
GW 378  50 17.76000 21.76000 2.700000 20.00000 20.00000 15.20000 0.001000
GW 379  25 20.00000 20.00000 0.350000 19.99000 22.50000 2.700000 0.001000
GW 380  50 19.99000 22.50000 2.700000 20.00000 20.00000 15.20000 0.001000
GW 381  3  20.00000 20.00000 -0.350000 20.00000 20.00000 0.350000 0.001000
GW 382  25 20.00000 20.00000 -0.350000 21.76000 21.78000 -2.700000 0.001000
GW 383  50 21.76000 21.78000 -2.700000 20.00000 20.00000 -15.20000 0.001000
GW 384  25 20.00000 20.00000 -0.350000 22.50000 20.01000 -2.700000 0.001000
GW 385  50 22.50000 20.01000 -2.700000 20.00000 20.00000 -15.20000 0.001000
GW 386  25 20.00000 20.00000 -0.350000 21.78000 17.78000 -2.700000 0.001000
GW 387  50 21.78000 17.78000 -2.700000 20.00000 20.00000 -15.20000 0.001000
GW 388  25 20.00000 20.00000 -0.350000 20.01000 17.50000 -2.700000 0.001000
GW 389  50 20.01000 17.50000 -2.700000 20.00000 20.00000 -15.20000 0.001000
GW 390  25 20.00000 20.00000 -0.350000 17.78000 17.76000 -2.700000 0.001000
GW 391  50 17.78000 17.76000 -2.700000 20.00000 20.00000 -15.20000 0.001000
GW 392  25 20.00000 20.00000 -0.350000 17.50000 19.99000 -2.700000 0.001000
GW 393  50 17.50000 19.99000 -2.700000 20.00000 20.00000 -15.20000 0.001000
GW 394  25 20.00000 20.00000 -0.350000 17.76000 21.76000 -2.700000 0.001000
GW 395  50 17.76000 21.76000 -2.700000 20.00000 20.00000 -15.20000 0.001000
GW 396  25 20.00000 20.00000 -0.350000 19.99000 22.50000 -2.700000 0.001000
GW 397  50 19.99000 22.50000 -2.700000 20.00000 20.00000 -15.20000 0.001000
GE 0 
GN -1 
FR  0  0  0  0   5.0 
EX  0 117  2  0    1.0000E+000    0.0000E+000 
EX  0 150  2  0    1.0000E+000    0.0000E+000 
EX  0 183  2  0    1.0000E+000    0.0000E+000 
EX  0 216  2  0    1.0000E+000    0.0000E+000 
EX  0 249  2  0    1.0000E+000    0.0000E+000 
EX  0 282  2  0    1.0000E+000    0.0000E+000 
EX  0 315  2  0    1.0000E+000    0.0000E+000 
EX  0 348  2  0    1.0000E+000    0.0000E+000 
EX  0 381  2  0    1.0000E+000    0.0000E+000 
PT -1
RP  0  19  72  1010 0.0 0.0 5.0 5.0
EN
