CM
CE
GW 101  20   -10.00000 -15.00000 -5.000000 -10.00000 -15.00000 5.000000 0.001000
GW 102  20   -5.000000 -15.00000 -5.000000 -5.000000 -15.00000 5.000000 0.001000
GW 103  20   0.000000 -15.00000 -5.000000 0.000000 -15.00000 5.000000 0.001000
GW 104  20   5.000000 -15.00000 -5.000000 5.000000 -15.00000 5.000000 0.001000
GW 105  20   10.00000 -15.00000 -5.000000 10.00000 -15.00000 5.000000 0.001000
GW 106  20   -10.00000 -10.00000 -5.000000 -10.00000 -10.00000 5.000000 0.001000
GW 107  20   -5.000000 -10.00000 -5.000000 -5.000000 -10.00000 5.000000 0.001000
GW 108  20   0.000000 -10.00000 -5.000000 0.000000 -10.00000 5.000000 0.001000
GW 109  20   5.000000 -10.00000 -5.000000 5.000000 -10.00000 5.000000 0.001000
GW 110  20   10.00000 -10.00000 -5.000000 10.00000 -10.00000 5.000000 0.001000
GW 111  20   -10.00000 -5.000000 -5.000000 -10.00000 -5.000000 5.000000 0.001000
GW 112  20   -5.000000 -5.000000 -5.000000 -5.000000 -5.000000 5.000000 0.001000
GW 113  20   0.000000 -5.000000 -5.000000 0.000000 -5.000000 5.000000 0.001000
GW 114  20   5.000000 -5.000000 -5.000000 5.000000 -5.000000 5.000000 0.001000
GW 115  20   10.00000 -5.000000 -5.000000 10.00000 -5.000000 5.000000 0.001000
GW 116  20   -10.00000 0.000000 -5.000000 -10.00000 0.000000 5.000000 0.001000
GW 117  20   -5.000000 0.000000 -5.000000 -5.000000 0.000000 5.000000 0.001000
GW 118  20   0.000000 0.000000 -5.000000 0.000000 0.000000 5.000000 0.001000
GW 119  20   5.000000 0.000000 -5.000000 5.000000 0.000000 5.000000 0.001000
GW 120  20   10.00000 0.000000 -5.000000 10.00000 0.000000 5.000000 0.001000
GW 121  20   -10.00000 5.000000 -5.000000 -10.00000 5.000000 5.000000 0.001000
GW 122  20   -5.000000 5.000000 -5.000000 -5.000000 5.000000 5.000000 0.001000
GW 123  20   0.000000 5.000000 -5.000000 0.000000 5.000000 5.000000 0.001000
GW 124  20   5.000000 5.000000 -5.000000 5.000000 5.000000 5.000000 0.001000
GW 125  20   10.00000 5.000000 -5.000000 10.00000 5.000000 5.000000 0.001000
GE 0 
GN -1 
FR  0  0  0  0   5.0 
EX  0 101  10 0   5.5754E+001   -5.9923E+002 
EX  0 102  10 0   6.6056E+001   -7.1713E+002 
EX  0 103  10 0   -1.7175E+002   -1.7782E+002 
EX  0 104  10 0   -5.8732E+002   1.2537E+002 
EX  0 105  10 0   -5.9148E+002   1.2736E+002 
EX  0 106  10 0   8.9078E+001   -7.0112E+002 
EX  0 107  10 0   3.6632E+002   -8.4383E+002 
EX  0 108  10 0   3.3631E+002   7.9811E+001 
EX  0 109  10 0   -5.3740E+002   5.1413E+002 
EX  0 110  10 0   -1.0859E+002   1.0131E+002 
EX  0 111  10 0   -1.5981E+002   -4.1803E+002 
EX  0 112  10 0   6.7687E+002   2.1958E+002 
EX  0 113  10 0   -4.1733E+001   7.2104E+002 
EX  0 114  10 0   -3.5678E+002   8.4554E+002 
EX  0 115  10 0   -1.2911E+002   3.4123E+002 
EX  0 116  10 0   -5.8777E+002   1.1634E+002 
EX  0 117  10 0   -4.7507E+002   6.1058E+002 
EX  0 118  10 0   -2.5323E+002   7.7284E+002 
EX  0 119  10 0   1.5844E+002   1.1355E+002 
EX  0 120  10 0   6.6156E+002   -5.4343E+002 
EX  0 121  10 0   -6.9520E+002   1.6803E+002 
EX  0 122  10 0   -2.0417E+002   1.6321E+002 
EX  0 123  10 0   -8.9146E+001   2.8078E+002 
EX  0 124  10 0   5.9827E+002   -5.2291E+002 
EX  0 125  10 0   8.5827E+002   -9.1815E+002 
PT -1
RP  0  19  72  1010 0.0 0.0 5.0 5.0
EN
