CM 
CE
GW	101	25	5.000000	5.000000	0.350000	6.767767	6.767767	2.700000	0.001000
GW	102	50	6.767767	6.767767	2.700000	5.000000	5.000000	15.200000	0.001000
GW	103	25	5.000000	5.000000	0.350000	7.500000	5.000000	2.700000	0.001000
GW	104	50	7.500000	5.000000	2.700000	5.000000	5.000000	15.200000	0.001000
GW	105	25	5.000000	5.000000	0.350000	6.767767	3.232233	2.700000	0.001000
GW	106	50	6.767767	3.232233	2.700000	5.000000	5.000000	15.200000	0.001000
GW	107	25	5.000000	5.000000	0.350000	5.000000	2.500000	2.700000	0.001000
GW	108	50	5.000000	2.500000	2.700000	5.000000	5.000000	15.200000	0.001000
GW	109	25	5.000000	5.000000	0.350000	3.232233	3.232233	2.700000	0.001000
GW	110	50	3.232233	3.232233	2.700000	5.000000	5.000000	15.200000	0.001000
GW	111	25	5.000000	5.000000	0.350000	2.500000	5.000000	2.700000	0.001000
GW	112	50	2.500000	5.000000	2.700000	5.000000	5.000000	15.200000	0.001000
GW	113	25	5.000000	5.000000	0.350000	3.232233	6.767767	2.700000	0.001000
GW	114	50	3.232233	6.767767	2.700000	5.000000	5.000000	15.200000	0.001000
GW	115	25	5.000000	5.000000	0.350000	5.000000	7.500000	2.700000	0.001000
GW	116	50	5.000000	7.500000	2.700000	5.000000	5.000000	15.200000	0.001000
GW	199	3	5.000000	5.000000	0.200000	5.000000	5.000000	0.350000	0.001000
GW	201	25	-5.000000	5.000000	0.350000	-3.232233	6.767767	2.700000	0.001000
GW	202	50	-3.232233	6.767767	2.700000	-5.000000	5.000000	15.200000	0.001000
GW	203	25	-5.000000	5.000000	0.350000	-2.500000	5.000000	2.700000	0.001000
GW	204	50	-2.500000	5.000000	2.700000	-5.000000	5.000000	15.200000	0.001000
GW	205	25	-5.000000	5.000000	0.350000	-3.232233	3.232233	2.700000	0.001000
GW	206	50	-3.232233	3.232233	2.700000	-5.000000	5.000000	15.200000	0.001000
GW	207	25	-5.000000	5.000000	0.350000	-5.000000	2.500000	2.700000	0.001000
GW	208	50	-5.000000	2.500000	2.700000	-5.000000	5.000000	15.200000	0.001000
GW	209	25	-5.000000	5.000000	0.350000	-6.767767	3.232233	2.700000	0.001000
GW	210	50	-6.767767	3.232233	2.700000	-5.000000	5.000000	15.200000	0.001000
GW	211	25	-5.000000	5.000000	0.350000	-7.500000	5.000000	2.700000	0.001000
GW	212	50	-7.500000	5.000000	2.700000	-5.000000	5.000000	15.200000	0.001000
GW	213	25	-5.000000	5.000000	0.350000	-6.767767	6.767767	2.700000	0.001000
GW	214	50	-6.767767	6.767767	2.700000	-5.000000	5.000000	15.200000	0.001000
GW	215	25	-5.000000	5.000000	0.350000	-5.000000	7.500000	2.700000	0.001000
GW	216	50	-5.000000	7.500000	2.700000	-5.000000	5.000000	15.200000	0.001000
GW	299	3	-5.000000	5.000000	0.200000	-5.000000	5.000000	0.350000	0.001000
GW	301	25	5.000000	-5.000000	0.350000	6.767767	-3.232233	2.700000	0.001000
GW	302	50	6.767767	-3.232233	2.700000	5.000000	-5.000000	15.200000	0.001000
GW	303	25	5.000000	-5.000000	0.350000	7.500000	-5.000000	2.700000	0.001000
GW	304	50	7.500000	-5.000000	2.700000	5.000000	-5.000000	15.200000	0.001000
GW	305	25	5.000000	-5.000000	0.350000	6.767767	-6.767767	2.700000	0.001000
GW	306	50	6.767767	-6.767767	2.700000	5.000000	-5.000000	15.200000	0.001000
GW	307	25	5.000000	-5.000000	0.350000	5.000000	-7.500000	2.700000	0.001000
GW	308	50	5.000000	-7.500000	2.700000	5.000000	-5.000000	15.200000	0.001000
GW	309	25	5.000000	-5.000000	0.350000	3.232233	-6.767767	2.700000	0.001000
GW	310	50	3.232233	-6.767767	2.700000	5.000000	-5.000000	15.200000	0.001000
GW	311	25	5.000000	-5.000000	0.350000	2.500000	-5.000000	2.700000	0.001000
GW	312	50	2.500000	-5.000000	2.700000	5.000000	-5.000000	15.200000	0.001000
GW	313	25	5.000000	-5.000000	0.350000	3.232233	-3.232233	2.700000	0.001000
GW	314	50	3.232233	-3.232233	2.700000	5.000000	-5.000000	15.200000	0.001000
GW	315	25	5.000000	-5.000000	0.350000	5.000000	-2.500000	2.700000	0.001000
GW	316	50	5.000000	-2.500000	2.700000	5.000000	-5.000000	15.200000	0.001000
GW	399	3	5.000000	-5.000000	0.200000	5.000000	-5.000000	0.350000	0.001000
GW	401	25	-5.000000	-5.000000	0.350000	-3.232233	-3.232233	2.700000	0.001000
GW	402	50	-3.232233	-3.232233	2.700000	-5.000000	-5.000000	15.200000	0.001000
GW	403	25	-5.000000	-5.000000	0.350000	-2.500000	-5.000000	2.700000	0.001000
GW	404	50	-2.500000	-5.000000	2.700000	-5.000000	-5.000000	15.200000	0.001000
GW	405	25	-5.000000	-5.000000	0.350000	-3.232233	-6.767767	2.700000	0.001000
GW	406	50	-3.232233	-6.767767	2.700000	-5.000000	-5.000000	15.200000	0.001000
GW	407	25	-5.000000	-5.000000	0.350000	-5.000000	-7.500000	2.700000	0.001000
GW	408	50	-5.000000	-7.500000	2.700000	-5.000000	-5.000000	15.200000	0.001000
GW	409	25	-5.000000	-5.000000	0.350000	-6.767767	-6.767767	2.700000	0.001000
GW	410	50	-6.767767	-6.767767	2.700000	-5.000000	-5.000000	15.200000	0.001000
GW	411	25	-5.000000	-5.000000	0.350000	-7.500000	-5.000000	2.700000	0.001000
GW	412	50	-7.500000	-5.000000	2.700000	-5.000000	-5.000000	15.200000	0.001000
GW	413	25	-5.000000	-5.000000	0.350000	-6.767767	-3.232233	2.700000	0.001000
GW	414	50	-6.767767	-3.232233	2.700000	-5.000000	-5.000000	15.200000	0.001000
GW	415	25	-5.000000	-5.000000	0.350000	-5.000000	-2.500000	2.700000	0.001000
GW	416	50	-5.000000	-2.500000	2.700000	-5.000000	-5.000000	15.200000	0.001000
GW	499	3	-5.000000	-5.000000	0.200000	-5.000000	-5.000000	0.350000	0.001000
GW	500	4	5.000000	5.000000	0.200000	5.000000	5.200000	0.200000	0.001000
GW	501	50	5.000000	5.200000	0.200000	5.000000	20.000000	0.200000	0.001000
GW	502	4	5.000000	5.000000	0.200000	5.061803	5.190211	0.200000	0.001000
GW	503	50	5.061803	5.190211	0.200000	9.635255	19.265848	0.200000	0.001000
GW	504	4	5.000000	5.000000	0.200000	5.117557	5.161803	0.200000	0.001000
GW	505	50	5.117557	5.161803	0.200000	13.816779	17.135255	0.200000	0.001000
GW	506	4	5.000000	5.000000	0.200000	5.161803	5.117557	0.200000	0.001000
GW	507	50	5.161803	5.117557	0.200000	17.135255	13.816779	0.200000	0.001000
GW	508	4	5.000000	5.000000	0.200000	5.190211	5.061803	0.200000	0.001000
GW	509	50	5.190211	5.061803	0.200000	19.265848	9.635255	0.200000	0.001000
GW	510	4	5.000000	5.000000	0.200000	5.200000	5.000000	0.200000	0.001000
GW	511	50	5.200000	5.000000	0.200000	20.000000	5.000000	0.200000	0.001000
GW	600	4	-5.000000	5.000000	0.200000	-5.200000	5.000000	0.200000	0.001000
GW	601	50	-5.200000	5.000000	0.200000	-20.000000	5.000000	0.200000	0.001000
GW	602	4	-5.000000	5.000000	0.200000	-5.190211	5.061803	0.200000	0.001000
GW	603	50	-5.190211	5.061803	0.200000	-19.265848	9.635255	0.200000	0.001000
GW	604	4	-5.000000	5.000000	0.200000	-5.161803	5.117557	0.200000	0.001000
GW	605	50	-5.161803	5.117557	0.200000	-17.135255	13.816779	0.200000	0.001000
GW	606	4	-5.000000	5.000000	0.200000	-5.117557	5.161803	0.200000	0.001000
GW	607	50	-5.117557	5.161803	0.200000	-13.816779	17.135255	0.200000	0.001000
GW	608	4	-5.000000	5.000000	0.200000	-5.061803	5.190211	0.200000	0.001000
GW	609	50	-5.061803	5.190211	0.200000	-9.635255	19.265848	0.200000	0.001000
GW	610	4	-5.000000	5.000000	0.200000	-5.000000	5.200000	0.200000	0.001000
GW	611	50	-5.000000	5.200000	0.200000	-5.000000	20.000000	0.200000	0.001000
GW	700	4	5.000000	-5.000000	0.200000	5.200000	-5.000000	0.200000	0.001000
GW	701	50	5.200000	-5.000000	0.200000	20.000000	-5.000000	0.200000	0.001000
GW	702	4	5.000000	-5.000000	0.200000	5.190211	-5.061803	0.200000	0.001000
GW	703	50	5.190211	-5.061803	0.200000	19.265848	-9.635255	0.200000	0.001000
GW	704	4	5.000000	-5.000000	0.200000	5.161803	-5.117557	0.200000	0.001000
GW	705	50	5.161803	-5.117557	0.200000	17.135255	-13.816779	0.200000	0.001000
GW	706	4	5.000000	-5.000000	0.200000	5.117557	-5.161803	0.200000	0.001000
GW	707	50	5.117557	-5.161803	0.200000	13.816779	-17.135255	0.200000	0.001000
GW	708	4	5.000000	-5.000000	0.200000	5.061803	-5.190211	0.200000	0.001000
GW	709	50	5.061803	-5.190211	0.200000	9.635255	-19.265848	0.200000	0.001000
GW	710	4	5.000000	-5.000000	0.200000	5.000000	-5.200000	0.200000	0.001000
GW	711	50	5.000000	-5.200000	0.200000	5.000000	-20.000000	0.200000	0.001000
GW	800	4	-5.000000	-5.000000	0.200000	-5.000000	-5.200000	0.200000	0.001000
GW	801	50	-5.000000	-5.200000	0.200000	-5.000000	-20.000000	0.200000	0.001000
GW	802	4	-5.000000	-5.000000	0.200000	-5.061803	-5.190211	0.200000	0.001000
GW	803	50	-5.061803	-5.190211	0.200000	-9.635255	-19.265848	0.200000	0.001000
GW	804	4	-5.000000	-5.000000	0.200000	-5.117557	-5.161803	0.200000	0.001000
GW	805	50	-5.117557	-5.161803	0.200000	-13.816779	-17.135255	0.200000	0.001000
GW	806	4	-5.000000	-5.000000	0.200000	-5.161803	-5.117557	0.200000	0.001000
GW	807	50	-5.161803	-5.117557	0.200000	-17.135255	-13.816779	0.200000	0.001000
GW	808	4	-5.000000	-5.000000	0.200000	-5.190211	-5.061803	0.200000	0.001000
GW	809	50	-5.190211	-5.061803	0.200000	-19.265848	-9.635255	0.200000	0.001000
GW	810	4	-5.000000	-5.000000	0.200000	-5.200000	-5.000000	0.200000	0.001000
GW	811	50	-5.200000	-5.000000	0.200000	-20.000000	-5.000000	0.200000	0.001000
GE	1
GN	2	0	0	0	10.0	0.01
EK
EX	0	199	2	0	1.0000E+000	0	0	0
EX	0	299	2	0	1.0000E+000	0	0	0
EX	0	399	2	0	1.0000E+000	0	0	0
EX	0	499	2	0	1.0000E+000	0	0	0
FR	0	0	0	0	5.0	0
RP	0	19	72	1010	0.0	0.0	5.0	5.0		
EN
