CM
CE
GW 101  25 -3.000000 -5.000000 0.350000 -4.270000 -7.150000 2.700000 0.001000
GW 102  50 -4.270000 -7.150000 2.700000 -3.000000 -5.000000 15.20000 0.001000
GW 103  25 -3.000000 -5.000000 0.350000 -5.420000 -5.620000 2.700000 0.001000
GW 104  50 -5.420000 -5.620000 2.700000 -3.000000 -5.000000 15.20000 0.001000
GW 105  25 -3.000000 -5.000000 0.350000 -5.270000 -3.280000 2.700000 0.001000
GW 106  50 -5.270000 -3.280000 2.700000 -3.000000 -5.000000 15.20000 0.001000
GW 107  25 -3.000000 -5.000000 0.350000 -3.620000 -2.580000 2.700000 0.001000
GW 108  50 -3.620000 -2.580000 2.700000 -3.000000 -5.000000 15.20000 0.001000
GW 109  25 -3.000000 -5.000000 0.350000 -1.390000 -2.280000 2.700000 0.001000
GW 110  50 -1.390000 -2.280000 2.700000 -3.000000 -5.000000 15.20000 0.001000
GW 111  25 -3.000000 -5.000000 0.350000 -0.580000 -4.380000 2.700000 0.001000
GW 112  50 -0.580000 -4.380000 2.700000 -3.000000 -5.000000 15.20000 0.001000
GW 113  25 -3.000000 -5.000000 0.350000 -0.400000 -6.160000 2.700000 0.001000
GW 114  50 -0.400000 -6.160000 2.700000 -3.000000 -5.000000 15.20000 0.001000
GW 115  25 -3.000000 -5.000000 0.350000 -2.380000 -7.420000 2.700000 0.001000
GW 116  50 -2.380000 -7.420000 2.700000 -3.000000 -5.000000 15.20000 0.001000
GW 117  3  -3.000000 -5.000000 0.200000 -3.000000 -5.000000 0.350000 0.001000
GW 118  4  -3.000000 -5.000000 0.200000 -2.950000 -5.190000 0.200000 0.001000
GW 119  50 -2.950000 -5.190000 0.200000 0.720000 -19.53000 0.200000 0.001000
GW 120  4  -3.000000 -5.000000 0.200000 -3.010000 -5.200000 0.200000 0.001000
GW 121  50 -3.010000 -5.200000 0.200000 -3.960000 -19.97000 0.200000 0.001000
GW 122  4  -3.000000 -5.000000 0.200000 -3.070000 -5.190000 0.200000 0.001000
GW 123  50 -3.070000 -5.190000 0.200000 -8.540000 -18.94000 0.200000 0.001000
GW 124  4  -3.000000 -5.000000 0.200000 -3.130000 -5.150000 0.200000 0.001000
GW 125  50 -3.130000 -5.150000 0.200000 -11.83000 -19.46000 0.200000 0.001000
GW 126  4  -3.000000 -5.000000 0.200000 -3.170000 -5.110000 0.200000 0.001000
GW 127  50 -3.170000 -5.110000 0.200000 -15.67000 -13.03000 0.200000 0.001000
GW 128  4  -3.000000 -5.000000 0.200000 -3.190000 -5.050000 0.200000 0.001000
GW 129  50 -3.190000 -5.050000 0.200000 -17.53000 -8.720000 0.200000 0.001000
GW 130  25 3.000000 -5.000000 0.350000 4.300000 -7.140000 2.700000 0.001000
GW 131  50 4.300000 -7.140000 2.700000 3.000000 -5.000000 15.20000 0.001000
GW 132  25 3.000000 -5.000000 0.350000 2.410000 -7.430000 2.700000 0.001000
GW 133  50 2.410000 -7.430000 2.700000 3.000000 -5.000000 15.20000 0.001000
GW 134  25 3.000000 -5.000000 0.350000 0.410000 -6.190000 2.700000 0.001000
GW 135  50 0.410000 -6.190000 2.700000 3.000000 -5.000000 15.20000 0.001000
GW 136  25 3.000000 -5.000000 0.350000 0.570000 -4.410000 2.700000 0.001000
GW 137  50 0.570000 -4.410000 2.700000 3.000000 -5.000000 15.20000 0.001000
GW 138  25 3.000000 -5.000000 0.350000 1.360000 -2.300000 2.700000 0.001000
GW 139  50 1.360000 -2.300000 2.700000 3.000000 -5.000000 15.20000 0.001000
GW 140  25 3.000000 -5.000000 0.350000 3.590000 -2.570000 2.700000 0.001000
GW 141  50 3.590000 -2.570000 2.700000 3.000000 -5.000000 15.20000 0.001000
GW 142  25 3.000000 -5.000000 0.350000 5.250000 -3.250000 2.700000 0.001000
GW 143  50 5.250000 -3.250000 2.700000 3.000000 -5.000000 15.20000 0.001000
GW 144  25 3.000000 -5.000000 0.350000 5.430000 -5.590000 2.700000 0.001000
GW 145  50 5.430000 -5.590000 2.700000 3.000000 -5.000000 15.20000 0.001000
GW 146  3  3.000000 -5.000000 0.200000 3.000000 -5.000000 0.350000 0.001000
GW 147  4  3.000000 -5.000000 0.200000 3.190000 -5.050000 0.200000 0.001000
GW 148  50 3.190000 -5.050000 0.200000 17.57000 -8.560000 0.200000 0.001000
GW 149  4  3.000000 -5.000000 0.200000 3.170000 -5.110000 0.200000 0.001000
GW 150  50 3.170000 -5.110000 0.200000 15.76000 -12.89000 0.200000 0.001000
GW 151  4  3.000000 -5.000000 0.200000 3.130000 -5.150000 0.200000 0.001000
GW 152  50 3.130000 -5.150000 0.200000 12.70000 -16.44000 0.200000 0.001000
GW 153  4  3.000000 -5.000000 0.200000 3.080000 -5.190000 0.200000 0.001000
GW 154  50 3.080000 -5.190000 0.200000 11.60000 -19.59000 0.200000 0.001000
GW 155  4  3.000000 -5.000000 0.200000 3.010000 -5.200000 0.200000 0.001000
GW 156  50 3.010000 -5.200000 0.200000 4.120000 -19.96000 0.200000 0.001000
GW 157  4  3.000000 -5.000000 0.200000 2.950000 -5.190000 0.200000 0.001000
GW 158  50 2.950000 -5.190000 0.200000 -0.560000 -19.57000 0.200000 0.001000
GW 159  25 -3.000000 5.000000 0.350000 -4.300000 7.140000 2.700000 0.001000
GW 160  50 -4.300000 7.140000 2.700000 -3.000000 5.000000 15.20000 0.001000
GW 161  25 -3.000000 5.000000 0.350000 -2.410000 7.430000 2.700000 0.001000
GW 162  50 -2.410000 7.430000 2.700000 -3.000000 5.000000 15.20000 0.001000
GW 163  25 -3.000000 5.000000 0.350000 -0.410000 6.190000 2.700000 0.001000
GW 164  50 -0.410000 6.190000 2.700000 -3.000000 5.000000 15.20000 0.001000
GW 165  25 -3.000000 5.000000 0.350000 -0.570000 4.410000 2.700000 0.001000
GW 166  50 -0.570000 4.410000 2.700000 -3.000000 5.000000 15.20000 0.001000
GW 167  25 -3.000000 5.000000 0.350000 -1.360000 2.300000 2.700000 0.001000
GW 168  50 -1.360000 2.300000 2.700000 -3.000000 5.000000 15.20000 0.001000
GW 169  25 -3.000000 5.000000 0.350000 -3.590000 2.570000 2.700000 0.001000
GW 170  50 -3.590000 2.570000 2.700000 -3.000000 5.000000 15.20000 0.001000
GW 171  25 -3.000000 5.000000 0.350000 -5.250000 3.250000 2.700000 0.001000
GW 172  50 -5.250000 3.250000 2.700000 -3.000000 5.000000 15.20000 0.001000
GW 173  25 -3.000000 5.000000 0.350000 -5.430000 5.590000 2.700000 0.001000
GW 174  50 -5.430000 5.590000 2.700000 -3.000000 5.000000 15.20000 0.001000
GW 175  3  -3.000000 5.000000 0.200000 -3.000000 5.000000 0.350000 0.001000
GW 176  4  -3.000000 5.000000 0.200000 -3.190000 5.050000 0.200000 0.001000
GW 177  50 -3.190000 5.050000 0.200000 -17.57000 8.560000 0.200000 0.001000
GW 178  4  -3.000000 5.000000 0.200000 -3.170000 5.110000 0.200000 0.001000
GW 179  50 -3.170000 5.110000 0.200000 -15.76000 12.89000 0.200000 0.001000
GW 180  4  -3.000000 5.000000 0.200000 -3.130000 5.150000 0.200000 0.001000
GW 181  50 -3.130000 5.150000 0.200000 -12.70000 16.44000 0.200000 0.001000
GW 182  4  -3.000000 5.000000 0.200000 -3.080000 5.190000 0.200000 0.001000
GW 183  50 -3.080000 5.190000 0.200000 -11.60000 19.59000 0.200000 0.001000
GW 184  4  -3.000000 5.000000 0.200000 -3.010000 5.200000 0.200000 0.001000
GW 185  50 -3.010000 5.200000 0.200000 -4.120000 19.96000 0.200000 0.001000
GW 186  4  -3.000000 5.000000 0.200000 -2.950000 5.190000 0.200000 0.001000
GW 187  50 -2.950000 5.190000 0.200000 0.560000 19.57000 0.200000 0.001000
GW 188  25 3.000000 5.000000 0.350000 4.270000 7.150000 2.700000 0.001000
GW 189  50 4.270000 7.150000 2.700000 3.000000 5.000000 15.20000 0.001000
GW 190  25 3.000000 5.000000 0.350000 5.420000 5.620000 2.700000 0.001000
GW 191  50 5.420000 5.620000 2.700000 3.000000 5.000000 15.20000 0.001000
GW 192  25 3.000000 5.000000 0.350000 5.270000 3.280000 2.700000 0.001000
GW 193  50 5.270000 3.280000 2.700000 3.000000 5.000000 15.20000 0.001000
GW 194  25 3.000000 5.000000 0.350000 3.620000 2.580000 2.700000 0.001000
GW 195  50 3.620000 2.580000 2.700000 3.000000 5.000000 15.20000 0.001000
GW 196  25 3.000000 5.000000 0.350000 1.390000 2.280000 2.700000 0.001000
GW 197  50 1.390000 2.280000 2.700000 3.000000 5.000000 15.20000 0.001000
GW 198  25 3.000000 5.000000 0.350000 0.580000 4.380000 2.700000 0.001000
GW 199  50 0.580000 4.380000 2.700000 3.000000 5.000000 15.20000 0.001000
GW 200  25 3.000000 5.000000 0.350000 0.400000 6.160000 2.700000 0.001000
GW 201  50 0.400000 6.160000 2.700000 3.000000 5.000000 15.20000 0.001000
GW 202  25 3.000000 5.000000 0.350000 2.380000 7.420000 2.700000 0.001000
GW 203  50 2.380000 7.420000 2.700000 3.000000 5.000000 15.20000 0.001000
GW 204  3  3.000000 5.000000 0.200000 3.000000 5.000000 0.350000 0.001000
GW 205  4  3.000000 5.000000 0.200000 2.950000 5.190000 0.200000 0.001000
GW 206  50 2.950000 5.190000 0.200000 -0.720000 19.53000 0.200000 0.001000
GW 207  4  3.000000 5.000000 0.200000 3.010000 5.200000 0.200000 0.001000
GW 208  50 3.010000 5.200000 0.200000 3.960000 19.97000 0.200000 0.001000
GW 209  4  3.000000 5.000000 0.200000 3.070000 5.190000 0.200000 0.001000
GW 210  50 3.070000 5.190000 0.200000 8.540000 18.94000 0.200000 0.001000
GW 211  4  3.000000 5.000000 0.200000 3.130000 5.150000 0.200000 0.001000
GW 212  50 3.130000 5.150000 0.200000 11.83000 19.46000 0.200000 0.001000
GW 213  4  3.000000 5.000000 0.200000 3.170000 5.110000 0.200000 0.001000
GW 214  50 3.170000 5.110000 0.200000 15.67000 13.03000 0.200000 0.001000
GW 215  4  3.000000 5.000000 0.200000 3.190000 5.050000 0.200000 0.001000
GW 216  50 3.190000 5.050000 0.200000 17.53000 8.720000 0.200000 0.001000
GE 1 
GN  2  0  0  0  10.0  0.01 
FR  0  0  0  0   5.0 
EX  0 117  2  0    1.0000E+000    0.0000E+000 
EX  0 146  2  0    1.0000E+000    0.0000E+000 
EX  0 175  2  0    1.0000E+000    0.0000E+000 
EX  0 204  2  0    1.0000E+000    0.0000E+000 
RP  0  19  72  1010 0.0 0.0 5.0 5.0
EN
