CM
CE
GW 101  25 -5.000000 -5.000000 0.350000 -6.760000 -6.780000 2.700000 0.001000
GW 102  50 -6.760000 -6.780000 2.700000 -5.000000 -5.000000 15.20000 0.001000
GW 103  25 -5.000000 -5.000000 0.350000 -7.500000 -5.010000 2.700000 0.001000
GW 104  50 -7.500000 -5.010000 2.700000 -5.000000 -5.000000 15.20000 0.001000
GW 105  25 -5.000000 -5.000000 0.350000 -6.780000 -2.780000 2.700000 0.001000
GW 106  50 -6.780000 -2.780000 2.700000 -5.000000 -5.000000 15.20000 0.001000
GW 107  25 -5.000000 -5.000000 0.350000 -5.010000 -2.500000 2.700000 0.001000
GW 108  50 -5.010000 -2.500000 2.700000 -5.000000 -5.000000 15.20000 0.001000
GW 109  25 -5.000000 -5.000000 0.350000 -2.780000 -2.760000 2.700000 0.001000
GW 110  50 -2.780000 -2.760000 2.700000 -5.000000 -5.000000 15.20000 0.001000
GW 111  25 -5.000000 -5.000000 0.350000 -2.500000 -4.990000 2.700000 0.001000
GW 112  50 -2.500000 -4.990000 2.700000 -5.000000 -5.000000 15.20000 0.001000
GW 113  25 -5.000000 -5.000000 0.350000 -2.760000 -6.760000 2.700000 0.001000
GW 114  50 -2.760000 -6.760000 2.700000 -5.000000 -5.000000 15.20000 0.001000
GW 115  25 -5.000000 -5.000000 0.350000 -4.990000 -7.500000 2.700000 0.001000
GW 116  50 -4.990000 -7.500000 2.700000 -5.000000 -5.000000 15.20000 0.001000
GW 117  3  -5.000000 -5.000000 0.200000 -5.000000 -5.000000 0.350000 0.001000
GW 118  4  -5.000000 -5.000000 0.200000 -5.000000 -5.200000 0.200000 0.001000
GW 119  50 -5.000000 -5.200000 0.200000 -4.920000 -20.00000 0.200000 0.001000
GW 120  4  -5.000000 -5.000000 0.200000 -5.060000 -5.190000 0.200000 0.001000
GW 121  50 -5.060000 -5.190000 0.200000 -9.560000 -19.29000 0.200000 0.001000
GW 122  4  -5.000000 -5.000000 0.200000 -5.120000 -5.160000 0.200000 0.001000
GW 123  50 -5.120000 -5.160000 0.200000 -13.75000 -17.18000 0.200000 0.001000
GW 124  4  -5.000000 -5.000000 0.200000 -5.160000 -5.120000 0.200000 0.001000
GW 125  50 -5.160000 -5.120000 0.200000 -17.07000 -16.88000 0.200000 0.001000
GW 126  4  -5.000000 -5.000000 0.200000 -5.190000 -5.060000 0.200000 0.001000
GW 127  50 -5.190000 -5.060000 0.200000 -19.24000 -9.710000 0.200000 0.001000
GW 128  4  -5.000000 -5.000000 0.200000 -5.200000 -5.000000 0.200000 0.001000
GW 129  50 -5.200000 -5.000000 0.200000 -20.00000 -5.080000 0.200000 0.001000
GW 130  25 5.000000 -5.000000 0.350000 6.780000 -6.760000 2.700000 0.001000
GW 131  50 6.780000 -6.760000 2.700000 5.000000 -5.000000 15.20000 0.001000
GW 132  25 5.000000 -5.000000 0.350000 5.010000 -7.500000 2.700000 0.001000
GW 133  50 5.010000 -7.500000 2.700000 5.000000 -5.000000 15.20000 0.001000
GW 134  25 5.000000 -5.000000 0.350000 2.780000 -6.780000 2.700000 0.001000
GW 135  50 2.780000 -6.780000 2.700000 5.000000 -5.000000 15.20000 0.001000
GW 136  25 5.000000 -5.000000 0.350000 2.500000 -5.010000 2.700000 0.001000
GW 137  50 2.500000 -5.010000 2.700000 5.000000 -5.000000 15.20000 0.001000
GW 138  25 5.000000 -5.000000 0.350000 2.760000 -2.780000 2.700000 0.001000
GW 139  50 2.760000 -2.780000 2.700000 5.000000 -5.000000 15.20000 0.001000
GW 140  25 5.000000 -5.000000 0.350000 4.990000 -2.500000 2.700000 0.001000
GW 141  50 4.990000 -2.500000 2.700000 5.000000 -5.000000 15.20000 0.001000
GW 142  25 5.000000 -5.000000 0.350000 6.760000 -2.760000 2.700000 0.001000
GW 143  50 6.760000 -2.760000 2.700000 5.000000 -5.000000 15.20000 0.001000
GW 144  25 5.000000 -5.000000 0.350000 7.500000 -4.990000 2.700000 0.001000
GW 145  50 7.500000 -4.990000 2.700000 5.000000 -5.000000 15.20000 0.001000
GW 146  3  5.000000 -5.000000 0.200000 5.000000 -5.000000 0.350000 0.001000
GW 147  4  5.000000 -5.000000 0.200000 5.200000 -5.000000 0.200000 0.001000
GW 148  50 5.200000 -5.000000 0.200000 20.00000 -4.920000 0.200000 0.001000
GW 149  4  5.000000 -5.000000 0.200000 5.190000 -5.060000 0.200000 0.001000
GW 150  50 5.190000 -5.060000 0.200000 19.29000 -9.560000 0.200000 0.001000
GW 151  4  5.000000 -5.000000 0.200000 5.160000 -5.120000 0.200000 0.001000
GW 152  50 5.160000 -5.120000 0.200000 17.18000 -13.75000 0.200000 0.001000
GW 153  4  5.000000 -5.000000 0.200000 5.120000 -5.160000 0.200000 0.001000
GW 154  50 5.120000 -5.160000 0.200000 16.88000 -17.07000 0.200000 0.001000
GW 155  4  5.000000 -5.000000 0.200000 5.060000 -5.190000 0.200000 0.001000
GW 156  50 5.060000 -5.190000 0.200000 9.710000 -19.24000 0.200000 0.001000
GW 157  4  5.000000 -5.000000 0.200000 5.000000 -5.200000 0.200000 0.001000
GW 158  50 5.000000 -5.200000 0.200000 5.080000 -20.00000 0.200000 0.001000
GW 159  25 -10.00000 5.000000 0.350000 -12.24000 6.110000 2.700000 0.001000
GW 160  50 -12.24000 6.110000 2.700000 -10.00000 5.000000 15.20000 0.001000
GW 161  25 -10.00000 5.000000 0.350000 -10.80000 7.370000 2.700000 0.001000
GW 162  50 -10.80000 7.370000 2.700000 -10.00000 5.000000 15.20000 0.001000
GW 163  25 -10.00000 5.000000 0.350000 -8.450000 7.390000 2.700000 0.001000
GW 164  50 -8.450000 7.390000 2.700000 -10.00000 5.000000 15.20000 0.001000
GW 165  25 -10.00000 5.000000 0.350000 -7.630000 5.800000 2.700000 0.001000
GW 166  50 -7.630000 5.800000 2.700000 -10.00000 5.000000 15.20000 0.001000
GW 167  25 -10.00000 5.000000 0.350000 -7.170000 3.600000 2.700000 0.001000
GW 168  50 -7.170000 3.600000 2.700000 -10.00000 5.000000 15.20000 0.001000
GW 169  25 -10.00000 5.000000 0.350000 -9.200000 2.630000 2.700000 0.001000
GW 170  50 -9.200000 2.630000 2.700000 -10.00000 5.000000 15.20000 0.001000
GW 171  25 -10.00000 5.000000 0.350000 -10.96000 2.320000 2.700000 0.001000
GW 172  50 -10.96000 2.320000 2.700000 -10.00000 5.000000 15.20000 0.001000
GW 173  25 -10.00000 5.000000 0.350000 -12.37000 4.200000 2.700000 0.001000
GW 174  50 -12.37000 4.200000 2.700000 -10.00000 5.000000 15.20000 0.001000
GW 175  3  -10.00000 5.000000 0.200000 -10.00000 5.000000 0.350000 0.001000
GW 176  4  -10.00000 5.000000 0.200000 -10.19000 4.940000 0.200000 0.001000
GW 177  50 -10.19000 4.940000 0.200000 -24.20000 0.180000 0.200000 0.001000
GW 178  4  -10.00000 5.000000 0.200000 -10.20000 5.000000 0.200000 0.001000
GW 179  50 -10.20000 5.000000 0.200000 -25.00000 4.810000 0.200000 0.001000
GW 180  4  -10.00000 5.000000 0.200000 -10.19000 5.060000 0.200000 0.001000
GW 181  50 -10.19000 5.060000 0.200000 -24.32000 9.450000 0.200000 0.001000
GW 182  4  -10.00000 5.000000 0.200000 -10.16000 5.120000 0.200000 0.001000
GW 183  50 -10.16000 5.120000 0.200000 -25.09000 12.69000 0.200000 0.001000
GW 184  4  -10.00000 5.000000 0.200000 -10.12000 5.160000 0.200000 0.001000
GW 185  50 -10.12000 5.160000 0.200000 -18.97000 17.02000 0.200000 0.001000
GW 186  4  -10.00000 5.000000 0.200000 -10.06000 5.190000 0.200000 0.001000
GW 187  50 -10.06000 5.190000 0.200000 -14.82000 19.20000 0.200000 0.001000
GW 188  25 10.00000 5.000000 0.350000 12.23000 6.130000 2.700000 0.001000
GW 189  50 12.23000 6.130000 2.700000 10.00000 5.000000 15.20000 0.001000
GW 190  25 10.00000 5.000000 0.350000 12.38000 4.220000 2.700000 0.001000
GW 191  50 12.38000 4.220000 2.700000 10.00000 5.000000 15.20000 0.001000
GW 192  25 10.00000 5.000000 0.350000 10.99000 2.330000 2.700000 0.001000
GW 193  50 10.99000 2.330000 2.700000 10.00000 5.000000 15.20000 0.001000
GW 194  25 10.00000 5.000000 0.350000 9.220000 2.620000 2.700000 0.001000
GW 195  50 9.220000 2.620000 2.700000 10.00000 5.000000 15.20000 0.001000
GW 196  25 10.00000 5.000000 0.350000 7.180000 3.570000 2.700000 0.001000
GW 197  50 7.180000 3.570000 2.700000 10.00000 5.000000 15.20000 0.001000
GW 198  25 10.00000 5.000000 0.350000 7.620000 5.780000 2.700000 0.001000
GW 199  50 7.620000 5.780000 2.700000 10.00000 5.000000 15.20000 0.001000
GW 200  25 10.00000 5.000000 0.350000 8.430000 7.370000 2.700000 0.001000
GW 201  50 8.430000 7.370000 2.700000 10.00000 5.000000 15.20000 0.001000
GW 202  25 10.00000 5.000000 0.350000 10.78000 7.380000 2.700000 0.001000
GW 203  50 10.78000 7.380000 2.700000 10.00000 5.000000 15.20000 0.001000
GW 204  3  10.00000 5.000000 0.200000 10.00000 5.000000 0.350000 0.001000
GW 205  4  10.00000 5.000000 0.200000 10.06000 5.190000 0.200000 0.001000
GW 206  50 10.06000 5.190000 0.200000 14.67000 19.26000 0.200000 0.001000
GW 207  4  10.00000 5.000000 0.200000 10.12000 5.160000 0.200000 0.001000
GW 208  50 10.12000 5.160000 0.200000 18.84000 17.12000 0.200000 0.001000
GW 209  4  10.00000 5.000000 0.200000 10.16000 5.120000 0.200000 0.001000
GW 210  50 10.16000 5.120000 0.200000 22.15000 13.79000 0.200000 0.001000
GW 211  4  10.00000 5.000000 0.200000 10.19000 5.060000 0.200000 0.001000
GW 212  50 10.19000 5.060000 0.200000 25.21000 12.46000 0.200000 0.001000
GW 213  4  10.00000 5.000000 0.200000 10.20000 5.000000 0.200000 0.001000
GW 214  50 10.20000 5.000000 0.200000 25.00000 4.970000 0.200000 0.001000
GW 215  4  10.00000 5.000000 0.200000 10.19000 4.940000 0.200000 0.001000
GW 216  50 10.19000 4.940000 0.200000 24.26000 0.330000 0.200000 0.001000
GE 1 
GN  2  0  0  0  10.0  0.01 
FR  0  0  0  0   5.0 
EX  0 117  2  0    1.0000E-009    0.0000E+000 
EX  0 146  2  0    1.0000E+000    0.0000E+000 
EX  0 175  2  0    1.0000E-009    0.0000E+000 
EX  0 204  2  0    1.0000E-009    0.0000E+000 
RP  0  19  72  1010 0.0 0.0 5.0 5.0
EN
