CM
CE
GW 101  20 -10.00000 -15.00000 -5.000000 -10.00000 -15.00000 5.000000 0.001000
GW 102  20 -5.000000 -15.00000 -5.000000 -5.000000 -15.00000 5.000000 0.001000
GW 103  20 0.000000 -15.00000 -5.000000 0.000000 -15.00000 5.000000 0.001000
GW 104  20 5.000000 -15.00000 -5.000000 5.000000 -15.00000 5.000000 0.001000
GW 105  20 10.00000 -15.00000 -5.000000 10.00000 -15.00000 5.000000 0.001000
GW 106  20 -10.00000 -10.00000 -5.000000 -10.00000 -10.00000 5.000000 0.001000
GW 107  20 -5.000000 -10.00000 -5.000000 -5.000000 -10.00000 5.000000 0.001000
GW 108  20 0.000000 -10.00000 -5.000000 0.000000 -10.00000 5.000000 0.001000
GW 109  20 5.000000 -10.00000 -5.000000 5.000000 -10.00000 5.000000 0.001000
GW 110  20 10.00000 -10.00000 -5.000000 10.00000 -10.00000 5.000000 0.001000
GW 111  20 -10.00000 -5.000000 -5.000000 -10.00000 -5.000000 5.000000 0.001000
GW 112  20 -5.000000 -5.000000 -5.000000 -5.000000 -5.000000 5.000000 0.001000
GW 113  20 0.000000 -5.000000 -5.000000 0.000000 -5.000000 5.000000 0.001000
GW 114  20 5.000000 -5.000000 -5.000000 5.000000 -5.000000 5.000000 0.001000
GW 115  20 10.00000 -5.000000 -5.000000 10.00000 -5.000000 5.000000 0.001000
GW 116  20 -10.00000 0.000000 -5.000000 -10.00000 0.000000 5.000000 0.001000
GW 117  20 -5.000000 0.000000 -5.000000 -5.000000 0.000000 5.000000 0.001000
GW 118  20 0.000000 0.000000 -5.000000 0.000000 0.000000 5.000000 0.001000
GW 119  20 5.000000 0.000000 -5.000000 5.000000 0.000000 5.000000 0.001000
GW 120  20 10.00000 0.000000 -5.000000 10.00000 0.000000 5.000000 0.001000
GW 121  20 -10.00000 5.000000 -5.000000 -10.00000 5.000000 5.000000 0.001000
GW 122  20 -5.000000 5.000000 -5.000000 -5.000000 5.000000 5.000000 0.001000
GW 123  20 0.000000 5.000000 -5.000000 0.000000 5.000000 5.000000 0.001000
GW 124  20 5.000000 5.000000 -5.000000 5.000000 5.000000 5.000000 0.001000
GW 125  20 10.00000 5.000000 -5.000000 10.00000 5.000000 5.000000 0.001000
GE 0 
GN -1 
FR  0  0  0  0   5.0 														
EX  0 101  10 0    47.874	-149.903
EX  0 102  10 0    26.8018	-154.855
EX  0 103  10 0    -17.0687	-175.535 
EX  0 104  10 0    -76.48	-166.05
EX  0 105  10 0    -106.616	-132.097 
EX  0 106  10 0    20.0179	-176.55 
EX  0 107  10 0    1.85298	-124.556 
EX  0 108  10 0    -46.0661	-134.339
EX  0 109  10 0    -71.5356	-91.9749
EX  0 110  10 0    -81.5732	-37.1513 
EX  0 111  10 0    5.99248	-192.494
EX  0 112  10 0    -40.6879	-132.435
EX  0 113  10 0    -61.4115	-96.1271
EX  0 114  10 0    -89.0547	-102.761
EX  0 115  10 0    -90.8591	-19.5597
EX  0 116  10 0    -54.0613	-167.18
EX  0 117  10 0    -63.1269	-135.96
EX  0 118  10 0    -79.6735	-80.1903 
EX  0 119  10 0    -90.0382	-12.8076
EX  0 120  10 0    -87.215	48.2768
EX  0 121  10 0    -86.561	-171.751 
EX  0 122  10 0    -80.9845	-95.1067 
EX  0 123  10 0    -96.9437	-62.5872
EX  0 124  10 0    -102.046	21.2577
EX  0 125  10 0    -61.9185	118.822	
PT -1
RP  0  19  72  1010 0.0 0.0 5.0 5.0
EN
