CM
CE
GW 101  20 -10.00000 -15.00000 -5.000000 -10.00000 -15.00000 5.000000 0.001000
GW 102  20 -5.000000 -15.00000 -5.000000 -5.000000 -15.00000 5.000000 0.001000
GW 103  20 0.000000 -15.00000 -5.000000 0.000000 -15.00000 5.000000 0.001000
GW 104  20 5.000000 -15.00000 -5.000000 5.000000 -15.00000 5.000000 0.001000
GW 105  20 10.00000 -15.00000 -5.000000 10.00000 -15.00000 5.000000 0.001000
GW 106  20 -10.00000 -10.00000 -5.000000 -10.00000 -10.00000 5.000000 0.001000
GW 107  20 -5.000000 -10.00000 -5.000000 -5.000000 -10.00000 5.000000 0.001000
GW 108  20 0.000000 -10.00000 -5.000000 0.000000 -10.00000 5.000000 0.001000
GW 109  20 5.000000 -10.00000 -5.000000 5.000000 -10.00000 5.000000 0.001000
GW 110  20 10.00000 -10.00000 -5.000000 10.00000 -10.00000 5.000000 0.001000
GW 111  20 -10.00000 -5.000000 -5.000000 -10.00000 -5.000000 5.000000 0.001000
GW 112  20 -5.000000 -5.000000 -5.000000 -5.000000 -5.000000 5.000000 0.001000
GW 113  20 0.000000 -5.000000 -5.000000 0.000000 -5.000000 5.000000 0.001000
GW 114  20 5.000000 -5.000000 -5.000000 5.000000 -5.000000 5.000000 0.001000
GW 115  20 10.00000 -5.000000 -5.000000 10.00000 -5.000000 5.000000 0.001000
GW 116  20 -10.00000 0.000000 -5.000000 -10.00000 0.000000 5.000000 0.001000
GW 117  20 -5.000000 0.000000 -5.000000 -5.000000 0.000000 5.000000 0.001000
GW 118  20 0.000000 0.000000 -5.000000 0.000000 0.000000 5.000000 0.001000
GW 119  20 5.000000 0.000000 -5.000000 5.000000 0.000000 5.000000 0.001000
GW 120  20 10.00000 0.000000 -5.000000 10.00000 0.000000 5.000000 0.001000
GW 121  20 -10.00000 5.000000 -5.000000 -10.00000 5.000000 5.000000 0.001000
GW 122  20 -5.000000 5.000000 -5.000000 -5.000000 5.000000 5.000000 0.001000
GW 123  20 0.000000 5.000000 -5.000000 0.000000 5.000000 5.000000 0.001000
GW 124  20 5.000000 5.000000 -5.000000 5.000000 5.000000 5.000000 0.001000
GW 125  20 10.00000 5.000000 -5.000000 10.00000 5.000000 5.000000 0.001000
GE 0 
GN -1 
FR  0  0  0  0   5.0 

EX  0 101  10 0    126.434	-55.2488
EX  0 102  10 0    170.166	-101.25 
EX  0 103  10 0    148.225	-109.9 
EX  0 104  10 0    81.8082	-134.551 
EX  0 105  10 0    55.4405	-171.563 
EX  0 106  10 0    110.022	-82.7437 
EX  0 107  10 0    124.516	-125.473 
EX  0 108  10 0    119.27	-149.039
EX  0 109  10 0    36.3622	-109.693
EX  0 110  10 0    -5.96299	-110.718 
EX  0 111  10 0    111.841	-112.014
EX  0 112  10 0    106.242	-148.424
EX  0 113  10 0    70.3956	-141.321 
EX  0 114  10 0    8.2537	-123.538
EX  0 115  10 0    -75.9033	-41.2071
EX  0 116  10 0    79.1529	-161.325
EX  0 117  10 0    11.6625	-99.0047 
EX  0 118  10 0    -24.0291	-80.5473 
EX  0 119  10 0    -59.3678	-70.3534 
EX  0 120  10 0    -95.521	-44.8608 
EX  0 121  10 0    34.3296	-163.683
EX  0 122  10 0    -13.0458	-101.832
EX  0 123  10 0    -35.1007	-106.164
EX  0 124  10 0    -83.4654	-54.1404
EX  0 125  10 0    -104.3	-29.0389
PT -1
RP  0  19  72  1010 0.0 0.0 5.0 5.0
EN
