CM
CE
GW 101  20 -10.00000 -15.00000 -5.000000 -10.00000 -15.00000 5.000000 0.001000
GW 102  20 -5.000000 -15.00000 -5.000000 -5.000000 -15.00000 5.000000 0.001000
GW 103  20 0.000000 -15.00000 -5.000000 0.000000 -15.00000 5.000000 0.001000
GW 104  20 5.000000 -15.00000 -5.000000 5.000000 -15.00000 5.000000 0.001000
GW 105  20 10.00000 -15.00000 -5.000000 10.00000 -15.00000 5.000000 0.001000
GW 106  20 -10.00000 -10.00000 -5.000000 -10.00000 -10.00000 5.000000 0.001000
GW 107  20 -5.000000 -10.00000 -5.000000 -5.000000 -10.00000 5.000000 0.001000
GW 108  20 0.000000 -10.00000 -5.000000 0.000000 -10.00000 5.000000 0.001000
GW 109  20 5.000000 -10.00000 -5.000000 5.000000 -10.00000 5.000000 0.001000
GW 110  20 10.00000 -10.00000 -5.000000 10.00000 -10.00000 5.000000 0.001000
GW 111  20 -10.00000 -5.000000 -5.000000 -10.00000 -5.000000 5.000000 0.001000
GW 112  20 -5.000000 -5.000000 -5.000000 -5.000000 -5.000000 5.000000 0.001000
GW 113  20 0.000000 -5.000000 -5.000000 0.000000 -5.000000 5.000000 0.001000
GW 114  20 5.000000 -5.000000 -5.000000 5.000000 -5.000000 5.000000 0.001000
GW 115  20 10.00000 -5.000000 -5.000000 10.00000 -5.000000 5.000000 0.001000
GW 116  20 -10.00000 0.000000 -5.000000 -10.00000 0.000000 5.000000 0.001000
GW 117  20 -5.000000 0.000000 -5.000000 -5.000000 0.000000 5.000000 0.001000
GW 118  20 0.000000 0.000000 -5.000000 0.000000 0.000000 5.000000 0.001000
GW 119  20 5.000000 0.000000 -5.000000 5.000000 0.000000 5.000000 0.001000
GW 120  20 10.00000 0.000000 -5.000000 10.00000 0.000000 5.000000 0.001000
GW 121  20 -10.00000 5.000000 -5.000000 -10.00000 5.000000 5.000000 0.001000
GW 122  20 -5.000000 5.000000 -5.000000 -5.000000 5.000000 5.000000 0.001000
GW 123  20 0.000000 5.000000 -5.000000 0.000000 5.000000 5.000000 0.001000
GW 124  20 5.000000 5.000000 -5.000000 5.000000 5.000000 5.000000 0.001000
GW 125  20 10.00000 5.000000 -5.000000 10.00000 5.000000 5.000000 0.001000
GE 0 
GN -1 
FR  0  0  0  0   5.0 
EX  0 101  10 0    -64.3716	-131.531
EX  0 102  10 0    -81.0363	-111.672
EX  0 103  10 0    -76.1253	-102.847
EX  0 104  10 0    -76.3384	-79.8135
EX  0 105  10 0    -126.886	-82.6597
EX  0 106  10 0    -89.7869	-145.564
EX  0 107  10 0    -122.42	-116.624
EX  0 108  10 0    -159.592	-145.993
EX  0 109  10 0    -111.97	-45.7147
EX  0 110  10 0    -109.755	-45.8068
EX  0 111  10 0    -153.564	-128.835
EX  0 112  10 0    -120.769	-81.1811
EX  0 113  10 0    -129.92	-69.4532
EX  0 114  10 0    -69.4404	23.6427
EX  0 115  10 0    -99.3917	22.13
EX  0 116  10 0    -177.279	-100.88
EX  0 117  10 0    -143.432	-61.3006 
EX  0 118  10 0    -116.754	-15.1457
EX  0 119  10 0    -91.8583	36.0502
EX  0 120  10 0    -95.1329	60.143
EX  0 121  10 0    -120.756	0.8805
EX  0 122  10 0    -65.3409	41.9671
EX  0 123  10 0    -93.6476	37.4175
EX  0 124  10 0    -62.2067	76.6325
EX  0 125  10 0    -14.9273	108.263	 
PT -1
RP  0  19  72  1010 0.0 0.0 5.0 5.0
EN
