CM
CE
GW 101  20 -10.00000 -15.00000 -5.000000 -10.00000 -15.00000 5.000000 0.001000
GW 102  20 -5.000000 -15.00000 -5.000000 -5.000000 -15.00000 5.000000 0.001000
GW 103  20 0.000000 -15.00000 -5.000000 0.000000 -15.00000 5.000000 0.001000
GW 104  20 5.000000 -15.00000 -5.000000 5.000000 -15.00000 5.000000 0.001000
GW 105  20 10.00000 -15.00000 -5.000000 10.00000 -15.00000 5.000000 0.001000
GW 106  20 -10.00000 -10.00000 -5.000000 -10.00000 -10.00000 5.000000 0.001000
GW 107  20 -5.000000 -10.00000 -5.000000 -5.000000 -10.00000 5.000000 0.001000
GW 108  20 0.000000 -10.00000 -5.000000 0.000000 -10.00000 5.000000 0.001000
GW 109  20 5.000000 -10.00000 -5.000000 5.000000 -10.00000 5.000000 0.001000
GW 110  20 10.00000 -10.00000 -5.000000 10.00000 -10.00000 5.000000 0.001000
GW 111  20 -10.00000 -5.000000 -5.000000 -10.00000 -5.000000 5.000000 0.001000
GW 112  20 -5.000000 -5.000000 -5.000000 -5.000000 -5.000000 5.000000 0.001000
GW 113  20 0.000000 -5.000000 -5.000000 0.000000 -5.000000 5.000000 0.001000
GW 114  20 5.000000 -5.000000 -5.000000 5.000000 -5.000000 5.000000 0.001000
GW 115  20 10.00000 -5.000000 -5.000000 10.00000 -5.000000 5.000000 0.001000
GW 116  20 -10.00000 0.000000 -5.000000 -10.00000 0.000000 5.000000 0.001000
GW 117  20 -5.000000 0.000000 -5.000000 -5.000000 0.000000 5.000000 0.001000
GW 118  20 0.000000 0.000000 -5.000000 0.000000 0.000000 5.000000 0.001000
GW 119  20 5.000000 0.000000 -5.000000 5.000000 0.000000 5.000000 0.001000
GW 120  20 10.00000 0.000000 -5.000000 10.00000 0.000000 5.000000 0.001000
GW 121  20 -10.00000 5.000000 -5.000000 -10.00000 5.000000 5.000000 0.001000
GW 122  20 -5.000000 5.000000 -5.000000 -5.000000 5.000000 5.000000 0.001000
GW 123  20 0.000000 5.000000 -5.000000 0.000000 5.000000 5.000000 0.001000
GW 124  20 5.000000 5.000000 -5.000000 5.000000 5.000000 5.000000 0.001000
GW 125  20 10.00000 5.000000 -5.000000 10.00000 5.000000 5.000000 0.001000
GE 0 
GN -1 
FR  0  0  0  0   5.0 
EX  0 101  10 0    141.892	-153.499
EX  0 102  10 0    95.8679	-174.124
EX  0 103  10 0    34.2909	-125.226
EX  0 104  10 0    -36.647	-138.802
EX  0 105  10 0    -62.1533	-42.7829
EX  0 106  10 0    117.469	-117.495
EX  0 107  10 0    76.8591	-134.2 
EX  0 108  10 0    40.6192	-186.011 
EX  0 109  10 0    -38.6314	-114.582
EX  0 110  10 0    -80.734	-47.7736
EX  0 111  10 0    119.584	-148.125 
EX  0 112  10 0    36.7568	-134.985
EX  0 113  10 0    2.21996	-131.441
EX  0 114  10 0    -55.6068	-108.206
EX  0 115  10 0    -98.175	-43.6213
EX  0 116  10 0    76.1168	-178.971
EX  0 117  10 0    9.88929	-141.105
EX  0 118  10 0    -34.1272	-107.028
EX  0 119  10 0    -82.6392	-74.0824
EX  0 120  10 0    -114.409	51.3609
EX  0 121  10 0    -5.44213	-153.853 
EX  0 122  10 0    -16.1975	-159.99
EX  0 123  10 0    -57.9151	-109.202
EX  0 124  10 0    -106.791	-12.0626
EX  0 125  10 0    -85.3504	115.255	
PT -1
RP  0  19  72  1010 0.0 0.0 5.0 5.0
EN
