CM
CE
GW 101  20 -10.00000 -15.00000 -5.000000 -10.00000 -15.00000 5.000000 0.001000
GW 102  20 -5.000000 -15.00000 -5.000000 -5.000000 -15.00000 5.000000 0.001000
GW 103  20 0.000000 -15.00000 -5.000000 0.000000 -15.00000 5.000000 0.001000
GW 104  20 5.000000 -15.00000 -5.000000 5.000000 -15.00000 5.000000 0.001000
GW 105  20 10.00000 -15.00000 -5.000000 10.00000 -15.00000 5.000000 0.001000
GW 106  20 -10.00000 -10.00000 -5.000000 -10.00000 -10.00000 5.000000 0.001000
GW 107  20 -5.000000 -10.00000 -5.000000 -5.000000 -10.00000 5.000000 0.001000
GW 108  20 0.000000 -10.00000 -5.000000 0.000000 -10.00000 5.000000 0.001000
GW 109  20 5.000000 -10.00000 -5.000000 5.000000 -10.00000 5.000000 0.001000
GW 110  20 10.00000 -10.00000 -5.000000 10.00000 -10.00000 5.000000 0.001000
GW 111  20 -10.00000 -5.000000 -5.000000 -10.00000 -5.000000 5.000000 0.001000
GW 112  20 -5.000000 -5.000000 -5.000000 -5.000000 -5.000000 5.000000 0.001000
GW 113  20 0.000000 -5.000000 -5.000000 0.000000 -5.000000 5.000000 0.001000
GW 114  20 5.000000 -5.000000 -5.000000 5.000000 -5.000000 5.000000 0.001000
GW 115  20 10.00000 -5.000000 -5.000000 10.00000 -5.000000 5.000000 0.001000
GW 116  20 -10.00000 0.000000 -5.000000 -10.00000 0.000000 5.000000 0.001000
GW 117  20 -5.000000 0.000000 -5.000000 -5.000000 0.000000 5.000000 0.001000
GW 118  20 0.000000 0.000000 -5.000000 0.000000 0.000000 5.000000 0.001000
GW 119  20 5.000000 0.000000 -5.000000 5.000000 0.000000 5.000000 0.001000
GW 120  20 10.00000 0.000000 -5.000000 10.00000 0.000000 5.000000 0.001000
GW 121  20 -10.00000 5.000000 -5.000000 -10.00000 5.000000 5.000000 0.001000
GW 122  20 -5.000000 5.000000 -5.000000 -5.000000 5.000000 5.000000 0.001000
GW 123  20 0.000000 5.000000 -5.000000 0.000000 5.000000 5.000000 0.001000
GW 124  20 5.000000 5.000000 -5.000000 5.000000 5.000000 5.000000 0.001000
GW 125  20 10.00000 5.000000 -5.000000 10.00000 5.000000 5.000000 0.001000
GE 0 
GN -1 
FR  0  0  0  0   5.0 
EX  0 101  10 0    153.773	-223.708
EX  0 102  10 0    100.12	-218.345
EX  0 103  10 0    4.29991	-170.867
EX  0 104  10 0    -88.3964	-67.8309 
EX  0 105  10 0    -116.329	26.6572 
EX  0 106  10 0    158.41	-213.505
EX  0 107  10 0    83.0542	-178.29 
EX  0 108  10 0    -1.85937	-146.118 
EX  0 109  10 0    -104.468	-55.512
EX  0 110  10 0    -110.556	87.1001 
EX  0 111  10 0    188.669	-235.63
EX  0 112  10 0    72.6071	-162.27 
EX  0 113  10 0    -10.1727	-134.62
EX  0 114  10 0    -113.028	4.2453
EX  0 115  10 0    -124.72	117.189 
EX  0 116  10 0    139.175	-208.32
EX  0 117  10 0    63.1278	-165.757
EX  0 118  10 0    -19.4058	-126.999
EX  0 119  10 0    -119.152	-24.4205
EX  0 120  10 0    -93.9882	130.214 
EX  0 121  10 0    143.749	-244.477
EX  0 122  10 0    75.0812	-210.747
EX  0 123  10 0    -22.9679	-140.055
EX  0 124  10 0    -115.839	-69.2997
EX  0 125  10 0    -118.625	86.0642	
PT -1
RP  0  19  72  1010 0.0 0.0 5.0 5.0
EN
