CM
CE
GW 101  20 -10.00000 -15.00000 -5.000000 -10.00000 -15.00000 5.000000 0.001000
GW 102  20 -5.000000 -15.00000 -5.000000 -5.000000 -15.00000 5.000000 0.001000
GW 103  20 0.000000 -15.00000 -5.000000 0.000000 -15.00000 5.000000 0.001000
GW 104  20 5.000000 -15.00000 -5.000000 5.000000 -15.00000 5.000000 0.001000
GW 105  20 10.00000 -15.00000 -5.000000 10.00000 -15.00000 5.000000 0.001000
GW 106  20 -10.00000 -10.00000 -5.000000 -10.00000 -10.00000 5.000000 0.001000
GW 107  20 -5.000000 -10.00000 -5.000000 -5.000000 -10.00000 5.000000 0.001000
GW 108  20 0.000000 -10.00000 -5.000000 0.000000 -10.00000 5.000000 0.001000
GW 109  20 5.000000 -10.00000 -5.000000 5.000000 -10.00000 5.000000 0.001000
GW 110  20 10.00000 -10.00000 -5.000000 10.00000 -10.00000 5.000000 0.001000
GW 111  20 -10.00000 -5.000000 -5.000000 -10.00000 -5.000000 5.000000 0.001000
GW 112  20 -5.000000 -5.000000 -5.000000 -5.000000 -5.000000 5.000000 0.001000
GW 113  20 0.000000 -5.000000 -5.000000 0.000000 -5.000000 5.000000 0.001000
GW 114  20 5.000000 -5.000000 -5.000000 5.000000 -5.000000 5.000000 0.001000
GW 115  20 10.00000 -5.000000 -5.000000 10.00000 -5.000000 5.000000 0.001000
GW 116  20 -10.00000 0.000000 -5.000000 -10.00000 0.000000 5.000000 0.001000
GW 117  20 -5.000000 0.000000 -5.000000 -5.000000 0.000000 5.000000 0.001000
GW 118  20 0.000000 0.000000 -5.000000 0.000000 0.000000 5.000000 0.001000
GW 119  20 5.000000 0.000000 -5.000000 5.000000 0.000000 5.000000 0.001000
GW 120  20 10.00000 0.000000 -5.000000 10.00000 0.000000 5.000000 0.001000
GW 121  20 -10.00000 5.000000 -5.000000 -10.00000 5.000000 5.000000 0.001000
GW 122  20 -5.000000 5.000000 -5.000000 -5.000000 5.000000 5.000000 0.001000
GW 123  20 0.000000 5.000000 -5.000000 0.000000 5.000000 5.000000 0.001000
GW 124  20 5.000000 5.000000 -5.000000 5.000000 5.000000 5.000000 0.001000
GW 125  20 10.00000 5.000000 -5.000000 10.00000 5.000000 5.000000 0.001000
GE 0 
GN -1 
FR  0  0  0  0   5.0 
EX  0 101  10 0    289.194	22.7369 
EX  0 102  10 0    214.033	-38.3041
EX  0 103  10 0    175.177	-102.184
EX  0 104  10 0    -95.2249	-53.2765
EX  0 105  10 0    -66.5384	-117.579 
EX  0 106  10 0    273.14	51.9186 
EX  0 107  10 0    222.559	-28.8457
EX  0 108  10 0    100.35	-83.3239
EX  0 109  10 0    -11.0564	-111.028
EX  0 110  10 0    -71.5366	-80.4593 
EX  0 111  10 0    263.765	35.2826
EX  0 112  10 0    180.677	-35.6649
EX  0 113  10 0    49.3355	-79.4991
EX  0 114  10 0    8.21152	-135.992
EX  0 115  10 0    -77.9394	-73.2133
EX  0 116  10 0    288.518	2.85959
EX  0 117  10 0    182.708	-55.8833
EX  0 118  10 0    27.9027	-85.0348
EX  0 119  10 0    -42.687	-121.989
EX  0 120  10 0    -118.832	-52.9896
EX  0 121  10 0    223.411	-36.948
EX  0 122  10 0    146.105	-78.8893
EX  0 123  10 0    78.4312	-128.443
EX  0 124  10 0    -102.095	-71.7909
EX  0 125  10 0    -170.147	-4.35179
PT -1
RP  0  19  72  1010 0.0 0.0 5.0 5.0
EN
