CM
CE
GW 101  20 -10.00000 -15.00000 -5.000000 -10.00000 -15.00000 5.000000 0.001000
GW 102  20 -5.000000 -15.00000 -5.000000 -5.000000 -15.00000 5.000000 0.001000
GW 103  20 0.000000 -15.00000 -5.000000 0.000000 -15.00000 5.000000 0.001000
GW 104  20 5.000000 -15.00000 -5.000000 5.000000 -15.00000 5.000000 0.001000
GW 105  20 10.00000 -15.00000 -5.000000 10.00000 -15.00000 5.000000 0.001000
GW 106  20 -10.00000 -10.00000 -5.000000 -10.00000 -10.00000 5.000000 0.001000
GW 107  20 -5.000000 -10.00000 -5.000000 -5.000000 -10.00000 5.000000 0.001000
GW 108  20 0.000000 -10.00000 -5.000000 0.000000 -10.00000 5.000000 0.001000
GW 109  20 5.000000 -10.00000 -5.000000 5.000000 -10.00000 5.000000 0.001000
GW 110  20 10.00000 -10.00000 -5.000000 10.00000 -10.00000 5.000000 0.001000
GW 111  20 -10.00000 -5.000000 -5.000000 -10.00000 -5.000000 5.000000 0.001000
GW 112  20 -5.000000 -5.000000 -5.000000 -5.000000 -5.000000 5.000000 0.001000
GW 113  20 0.000000 -5.000000 -5.000000 0.000000 -5.000000 5.000000 0.001000
GW 114  20 5.000000 -5.000000 -5.000000 5.000000 -5.000000 5.000000 0.001000
GW 115  20 10.00000 -5.000000 -5.000000 10.00000 -5.000000 5.000000 0.001000
GW 116  20 -10.00000 0.000000 -5.000000 -10.00000 0.000000 5.000000 0.001000
GW 117  20 -5.000000 0.000000 -5.000000 -5.000000 0.000000 5.000000 0.001000
GW 118  20 0.000000 0.000000 -5.000000 0.000000 0.000000 5.000000 0.001000
GW 119  20 5.000000 0.000000 -5.000000 5.000000 0.000000 5.000000 0.001000
GW 120  20 10.00000 0.000000 -5.000000 10.00000 0.000000 5.000000 0.001000
GW 121  20 -10.00000 5.000000 -5.000000 -10.00000 5.000000 5.000000 0.001000
GW 122  20 -5.000000 5.000000 -5.000000 -5.000000 5.000000 5.000000 0.001000
GW 123  20 0.000000 5.000000 -5.000000 0.000000 5.000000 5.000000 0.001000
GW 124  20 5.000000 5.000000 -5.000000 5.000000 5.000000 5.000000 0.001000
GW 125  20 10.00000 5.000000 -5.000000 10.00000 5.000000 5.000000 0.001000
GE 0 
GN -1 
FR  0  0  0  0   5.0 
											

EX  0 101  10 0    238.753	207.111 
EX  0 102  10 0    272.18	184.053
EX  0 103  10 0    240.658	76.34
EX  0 104  10 0    102.479	-75.4231
EX  0 105  10 0    66.9832	-135.074
EX  0 106  10 0    223.272	185.634
EX  0 107  10 0    261.672	159.242
EX  0 108  10 0    154.647	10.916
EX  0 109  10 0    28.4047	-97.2288 
EX  0 110  10 0    -18.9148	-130.82 
EX  0 111  10 0    238.703	155.264
EX  0 112  10 0    142.429	36.6233
EX  0 113  10 0    152.196	-38.9846
EX  0 114  10 0    -51.1112	-130.727
EX  0 115  10 0    -136.35	-95.6519
EX  0 116  10 0    256.085	114.343 
EX  0 117  10 0    186.415	20.2991
EX  0 118  10 0    59.6253	-94.0127
EX  0 119  10 0    -105.815	-173.177
EX  0 120  10 0    -182.91	-99.5038 
EX  0 121  10 0    280.712	84.8278
EX  0 122  10 0    137.689	-27.3939
EX  0 123  10 0    44.6769	-129.136
EX  0 124  10 0    -128.658	-135.426
EX  0 125  10 0    -199.897	-24.6115
PT -1
RP  0  19  72  1010 0.0 0.0 5.0 5.0
EN
