CM
CE
GW 101  20 -10.00000 -15.00000 -5.000000 -10.00000 -15.00000 5.000000 0.001000
GW 102  20 -5.000000 -15.00000 -5.000000 -5.000000 -15.00000 5.000000 0.001000
GW 103  20 0.000000 -15.00000 -5.000000 0.000000 -15.00000 5.000000 0.001000
GW 104  20 5.000000 -15.00000 -5.000000 5.000000 -15.00000 5.000000 0.001000
GW 105  20 10.00000 -15.00000 -5.000000 10.00000 -15.00000 5.000000 0.001000
GW 106  20 -10.00000 -10.00000 -5.000000 -10.00000 -10.00000 5.000000 0.001000
GW 107  20 -5.000000 -10.00000 -5.000000 -5.000000 -10.00000 5.000000 0.001000
GW 108  20 0.000000 -10.00000 -5.000000 0.000000 -10.00000 5.000000 0.001000
GW 109  20 5.000000 -10.00000 -5.000000 5.000000 -10.00000 5.000000 0.001000
GW 110  20 10.00000 -10.00000 -5.000000 10.00000 -10.00000 5.000000 0.001000
GW 111  20 -10.00000 -5.000000 -5.000000 -10.00000 -5.000000 5.000000 0.001000
GW 112  20 -5.000000 -5.000000 -5.000000 -5.000000 -5.000000 5.000000 0.001000
GW 113  20 0.000000 -5.000000 -5.000000 0.000000 -5.000000 5.000000 0.001000
GW 114  20 5.000000 -5.000000 -5.000000 5.000000 -5.000000 5.000000 0.001000
GW 115  20 10.00000 -5.000000 -5.000000 10.00000 -5.000000 5.000000 0.001000
GW 116  20 -10.00000 0.000000 -5.000000 -10.00000 0.000000 5.000000 0.001000
GW 117  20 -5.000000 0.000000 -5.000000 -5.000000 0.000000 5.000000 0.001000
GW 118  20 0.000000 0.000000 -5.000000 0.000000 0.000000 5.000000 0.001000
GW 119  20 5.000000 0.000000 -5.000000 5.000000 0.000000 5.000000 0.001000
GW 120  20 10.00000 0.000000 -5.000000 10.00000 0.000000 5.000000 0.001000
GW 121  20 -10.00000 5.000000 -5.000000 -10.00000 5.000000 5.000000 0.001000
GW 122  20 -5.000000 5.000000 -5.000000 -5.000000 5.000000 5.000000 0.001000
GW 123  20 0.000000 5.000000 -5.000000 0.000000 5.000000 5.000000 0.001000
GW 124  20 5.000000 5.000000 -5.000000 5.000000 5.000000 5.000000 0.001000
GW 125  20 10.00000 5.000000 -5.000000 10.00000 5.000000 5.000000 0.001000
GE 0 
GN -1 
FR  0  0  0  0   5.0 	
EX  0 101  10 0    -449.189	154.149
EX  0 102  10 0    -457.99	214.733
EX  0 103  10 0    -164.807	171.829 
EX  0 104  10 0    -38.4085	208.432
EX  0 105  10 0    36.7272	251.335
EX  0 106  10 0    -367.202	181.259
EX  0 107  10 0    -271.508	186.065
EX  0 108  10 0    -81.4487	169.021
EX  0 109  10 0    78.2241	92.1977
EX  0 110  10 0    119.163	64.9165
EX  0 111  10 0    -179.885	191.448
EX  0 112  10 0    -28.2171	116.647
EX  0 113  10 0    107.547	116.484 
EX  0 114  10 0    162.919	-52.4331
EX  0 115  10 0    231.409	-41.7529
EX  0 116  10 0    -80.4827	270.29 
EX  0 117  10 0    74.1959	98.0105 
EX  0 118  10 0    174.476	-59.1603 
EX  0 119  10 0    220.91	-192.137 
EX  0 120  10 0    121.165	-201.604
EX  0 121  10 0    21.105	235.811
EX  0 122  10 0    115.817	56.027
EX  0 123  10 0    218.424	-77.9216 
EX  0 124  10 0    119.429	-214.671
EX  0 125  10 0    -115.704	-242.145
PT -1
RP  0  19  72  1010 0.0 0.0 5.0 5.0
EN
