CM
CE
GW 101  20 -10.00000 -15.00000 -5.000000 -10.00000 -15.00000 5.000000 0.001000
GW 102  20 -5.000000 -15.00000 -5.000000 -5.000000 -15.00000 5.000000 0.001000
GW 103  20 0.000000 -15.00000 -5.000000 0.000000 -15.00000 5.000000 0.001000
GW 104  20 5.000000 -15.00000 -5.000000 5.000000 -15.00000 5.000000 0.001000
GW 105  20 10.00000 -15.00000 -5.000000 10.00000 -15.00000 5.000000 0.001000
GW 106  20 -10.00000 -10.00000 -5.000000 -10.00000 -10.00000 5.000000 0.001000
GW 107  20 -5.000000 -10.00000 -5.000000 -5.000000 -10.00000 5.000000 0.001000
GW 108  20 0.000000 -10.00000 -5.000000 0.000000 -10.00000 5.000000 0.001000
GW 109  20 5.000000 -10.00000 -5.000000 5.000000 -10.00000 5.000000 0.001000
GW 110  20 10.00000 -10.00000 -5.000000 10.00000 -10.00000 5.000000 0.001000
GW 111  20 -10.00000 -5.000000 -5.000000 -10.00000 -5.000000 5.000000 0.001000
GW 112  20 -5.000000 -5.000000 -5.000000 -5.000000 -5.000000 5.000000 0.001000
GW 113  20 0.000000 -5.000000 -5.000000 0.000000 -5.000000 5.000000 0.001000
GW 114  20 5.000000 -5.000000 -5.000000 5.000000 -5.000000 5.000000 0.001000
GW 115  20 10.00000 -5.000000 -5.000000 10.00000 -5.000000 5.000000 0.001000
GW 116  20 -10.00000 0.000000 -5.000000 -10.00000 0.000000 5.000000 0.001000
GW 117  20 -5.000000 0.000000 -5.000000 -5.000000 0.000000 5.000000 0.001000
GW 118  20 0.000000 0.000000 -5.000000 0.000000 0.000000 5.000000 0.001000
GW 119  20 5.000000 0.000000 -5.000000 5.000000 0.000000 5.000000 0.001000
GW 120  20 10.00000 0.000000 -5.000000 10.00000 0.000000 5.000000 0.001000
GW 121  20 -10.00000 5.000000 -5.000000 -10.00000 5.000000 5.000000 0.001000
GW 122  20 -5.000000 5.000000 -5.000000 -5.000000 5.000000 5.000000 0.001000
GW 123  20 0.000000 5.000000 -5.000000 0.000000 5.000000 5.000000 0.001000
GW 124  20 5.000000 5.000000 -5.000000 5.000000 5.000000 5.000000 0.001000
GW 125  20 10.00000 5.000000 -5.000000 10.00000 5.000000 5.000000 0.001000
GE 0 
GN -1 
FR  0  0  0  0   5.0 
EX  0 101  10 0    -537.095	-180.271
EX  0 102  10 0    -387.103	-60.2571
EX  0 103  10 0    -312.494	48.3519
EX  0 104  10 0    -124.874	144.093
EX  0 105  10 0    -91.8342	236.177 
EX  0 106  10 0    -384.383	-63.8779
EX  0 107  10 0    -315.092	6.83435
EX  0 108  10 0    -141.25	93.6703
EX  0 109  10 0    35.5195	115.114
EX  0 110  10 0    73.8852	122.954
EX  0 111  10 0    -347.824	41.3196
EX  0 112  10 0    -145.04	88.7195
EX  0 113  10 0    46.4811	149.355
EX  0 114  10 0    193.267	107.892 
EX  0 115  10 0    218.035	88.0681
EX  0 116  10 0    -146.331	139.1
EX  0 117  10 0    25.473	114.357
EX  0 118  10 0    208.47	114.874
EX  0 119  10 0    270.726	-36.3318
EX  0 120  10 0    176.346	-150.527
EX  0 121  10 0    -115.187	242.772
EX  0 122  10 0    79.3495	98.5586
EX  0 123  10 0    238.229	74.2882
EX  0 124  10 0    192.862	-151.603
EX  0 125  10 0    37.2828	-319.405
PT -1
RP  0  19  72  1010 0.0 0.0 5.0 5.0
EN
